geometry optimzed in LAMMPS
_audit_creation_date              2020-11-30 
_audit_creation_method            'lammps2cif' 
_symmetry_space_group_name_H-M    'P1' 
_symmetry_Int_Tables_number       1 
_symmetry_cell_setting            triclinic 
loop_ 
_symmetry_equiv_pos_as_xyz 
  x,y,z 
_cell_length_a                    58.18742713 
_cell_length_b                    58.15804406725677 
_cell_length_c                    58.21812801473198 
_cell_angle_alpha                 89.93075475906524 
_cell_angle_beta                  89.80737116378697 
_cell_angle_gamma                 89.98432211191263 
loop_ 
_atom_site_label 
_atom_site_type_symbol 
_atom_site_fract_x 
_atom_site_fract_y 
_atom_site_fract_z 
_atom_site_charge 
N1          N  0.53900522  0.01149680  0.50498951    -0.36700
N2          N  0.49741321  0.01560397  0.53176476    -0.57300
N3          N  0.47034263  0.01581426  0.48974470    -0.36700
N4          N  0.51206579  0.01450176  0.46282821    -0.57300
C5          C  0.54747663  0.01600499  0.52612496     0.26800
C6          C  0.55531939  0.01763261  0.48955385     0.26800
C7          C  0.45468082  0.02362175  0.50511758     0.26800
C8          C  0.46231399  0.02082641  0.46853926     0.26800
C9          C  0.51202887  0.00907782  0.54855302     0.35500
C10         C  0.47601096  0.01351311  0.54055249     0.35500
C11         C  0.53307325  0.00967040  0.45415155     0.35500
C12         C  0.49675706  0.00972361  0.44607225     0.35500
C13         C  0.56942794  0.02504551  0.52414645    -0.22000
C14         C  0.57433320  0.02621831  0.50104360    -0.22000
C15         C  0.43649136  0.03371881  0.49353783    -0.22000
C16         C  0.44126807  0.03186778  0.47043342    -0.22000
C17         C  0.49983017  0.00253014  0.56798223    -0.23100
C18         C  0.47699159  0.00557126  0.56297800    -0.23100
C19         C  0.53114841  0.00172745  0.43180883    -0.23100
C20         C  0.50809571  0.00156673  0.42674404    -0.23100
C21         C  0.53617882  0.01118508  0.54711360    -0.18400
C22         C  0.55398424  0.01424388  0.46552849    -0.18400
C23         C  0.47295923  0.01448372  0.44757925    -0.18400
C24         C  0.45577522  0.02048375  0.52919365    -0.18400
H25         H  0.58069903  0.03034403  0.53791086     0.14500
H26         H  0.59019868  0.03251385  0.49360484     0.14500
H27         H  0.42122423  0.04138310  0.50093786     0.14500
H28         H  0.43046168  0.03793937  0.45659807     0.14500
H29         H  0.50663681  0.99663355  0.58422761     0.12800
H30         H  0.46273592  0.00244368  0.57455637     0.12800
H31         H  0.54493336  0.99672801  0.42032552     0.12800
H32         H  0.50063660  0.99640966  0.41055155     0.12800
H33         H  0.52401185  0.00241693  0.50147440     0.26000
H34         H  0.48438385  0.00535538  0.49336197     0.26000
N35         N  0.11078079  0.40226098  0.52783783    -0.36700
N36         N  0.11654933  0.36157830  0.49926897    -0.57300
N37         N  0.11916654  0.39024894  0.45903368    -0.36700
N38         N  0.11073189  0.43085095  0.48774647    -0.57300
C39         C  0.10506132  0.38545365  0.54279778     0.26800
C40         C  0.10313152  0.42227117  0.53681376     0.26800
C41         C  0.11653894  0.36923145  0.44941828     0.26800
C42         C  0.11277868  0.40595925  0.44317449     0.26800
C43         C  0.11983907  0.35238747  0.52028262     0.35500
C44         C  0.12467969  0.34606862  0.48403446     0.35500
C45         C  0.11226904  0.44747417  0.50388136     0.35500
C46         C  0.11567193  0.44097895  0.46748140     0.35500
C47         C  0.09352213  0.39486249  0.56145304    -0.22000
C48         C  0.09243086  0.41818911  0.55772132    -0.22000
C49         C  0.10849852  0.37164323  0.42715005    -0.22000
C50         C  0.10617501  0.39485351  0.42318776    -0.22000
C51         C  0.13021000  0.33100734  0.51844632    -0.23100
C52         C  0.13338918  0.32704054  0.49543124    -0.23100
C53         C  0.11812455  0.46826939  0.49384945    -0.23100
C54         C  0.12023652  0.46416498  0.47072950    -0.23100
C55         C  0.11180673  0.36223986  0.54090210    -0.18400
C56         C  0.10713908  0.44421355  0.52733502    -0.18400
C57         C  0.11393858  0.43005517  0.44592133    -0.18400
C58         C  0.12219997  0.34808665  0.46002040    -0.18400
H59         H  0.08700329  0.38592366  0.57643191     0.14500
H60         H  0.08485037  0.43074700  0.56917631     0.14500
H61         H  0.10466683  0.35811518  0.41500618     0.14500
H62         H  0.10030533  0.40265814  0.40737286     0.14500
H63         H  0.13475726  0.31937966  0.53223254     0.12800
H64         H  0.14089298  0.31174073  0.48795974     0.12800
H65         H  0.12035784  0.48470975  0.50223610     0.12800
H66         H  0.12439762  0.47685490  0.45775337     0.12800
H67         H  0.12189539  0.40054973  0.51391943     0.26000
H68         H  0.12714428  0.39381026  0.47459638     0.26000
N69         N  0.50937321  0.77581886  0.52927258    -0.36700
N70         N  0.46758042  0.77787478  0.50259708    -0.57300
N71         N  0.49487524  0.77732225  0.46056511    -0.36700
N72         N  0.53669657  0.77833914  0.48702996    -0.57300
C73         C  0.49409846  0.78162423  0.54592138     0.26800
C74         C  0.53065453  0.77953175  0.53773084     0.26800
C75         C  0.47360747  0.78096898  0.45212131     0.26800
C76         C  0.51002212  0.78338757  0.44395370     0.26800
C77         C  0.45843189  0.77456249  0.52369163     0.35500
C78         C  0.45088924  0.77270595  0.48740296     0.35500
C79         C  0.55358570  0.77323209  0.50204462     0.35500
C80         C  0.54596000  0.77632343  0.46579502     0.35500
C81         C  0.50590459  0.78904087  0.56520237    -0.22000
C82         C  0.52897002  0.78744723  0.56012706    -0.22000
C83         C  0.47517067  0.78929292  0.42984215    -0.22000
C84         C  0.49818286  0.79097073  0.42473175    -0.22000
C85         C  0.43576665  0.76744314  0.52187596    -0.23100
C86         C  0.43100126  0.76621341  0.49884485    -0.23100
C87         C  0.57374942  0.76820223  0.49031235    -0.23100
C88         C  0.56893181  0.77026637  0.46732110    -0.23100
C89         C  0.46989579  0.77917865  0.54454328    -0.18400
C90         C  0.55154864  0.77486039  0.52616454    -0.18400
C91         C  0.53413170  0.78071634  0.44509505    -0.18400
C92         C  0.45286599  0.77542157  0.46342426    -0.18400
H93         H  0.49871155  0.79478804  0.58136862     0.14500
H94         H  0.54291782  0.79175338  0.57159597     0.14500
H95         H  0.46117591  0.79354228  0.41839177     0.14500
H96         H  0.50535312  0.79673347  0.40854138     0.14500
H97         H  0.42390059  0.76353948  0.53569391     0.12800
H98         H  0.41468089  0.76140793  0.49138782     0.12800
H99         H  0.59030103  0.76387262  0.49756381     0.12800
H100        H  0.58094749  0.76760183  0.45334334     0.12800
H101        H  0.50575350  0.76738023  0.51400146     0.26000
H102        H  0.49857507  0.76847458  0.47559837     0.26000
N103        N  0.88715754  0.40688645  0.47063785    -0.36700
N104        N  0.88043287  0.36332103  0.49450445    -0.57300
N105        N  0.87472401  0.38794083  0.53722576    -0.36700
N106        N  0.87936829  0.43139619  0.51343416    -0.57300
C107        C  0.88399442  0.39250534  0.45265796     0.26800
C108        C  0.88403732  0.42857304  0.46279373     0.26800
C109        C  0.86877585  0.36646348  0.54379232     0.26800
C110        C  0.86712034  0.40249498  0.55364941     0.26800
C111        C  0.88719879  0.35543598  0.47376277     0.35500
C112        C  0.88242883  0.34549355  0.50926581     0.35500
C113        C  0.88610470  0.44920200  0.50012508     0.35500
C114        C  0.87935170  0.43912827  0.53529750     0.35500
C115        C  0.87914253  0.40521409  0.43309826    -0.22000
C116        C  0.87921584  0.42798267  0.43948221    -0.22000
C117        C  0.85722951  0.36735324  0.56465810    -0.22000
C118        C  0.85605252  0.39014937  0.57081172    -0.22000
C119        C  0.89318651  0.33240800  0.47525659    -0.23100
C120        C  0.89023508  0.32611650  0.49780998    -0.23100
C121        C  0.89032704  0.46838920  0.51355656    -0.23100
C122        C  0.88608300  0.46198545  0.53589264    -0.23100
C123        C  0.88646273  0.36831478  0.45322044    -0.18400
C124        C  0.88633484  0.44891313  0.47590274    -0.18400
C125        C  0.87167526  0.42631241  0.55445643    -0.18400
C126        C  0.87570305  0.34611437  0.53255874    -0.18400
H127        H  0.87596145  0.39876813  0.41596895     0.14500
H128        H  0.87607153  0.44245513  0.42821515     0.14500
H129        H  0.85072513  0.35308386  0.57468182     0.14500
H130        H  0.84847025  0.39680713  0.58645120     0.14500
H131        H  0.89893542  0.32127859  0.46149989     0.12800
H132        H  0.89307674  0.30912502  0.50485232     0.12800
H133        H  0.89551204  0.48532346  0.50781047     0.12800
H134        H  0.88739910  0.47299920  0.55080401     0.12800
H135        H  0.89339790  0.40234776  0.48671479     0.26000
H136        H  0.88615436  0.39200373  0.52410026     0.26000
N137        N  0.53603126  0.39274354  0.15434579    -0.36700
N138        N  0.49459943  0.36542306  0.15487895    -0.57300
N139        N  0.46755988  0.40769038  0.15434591    -0.36700
N140        N  0.50914114  0.43494056  0.15692571    -0.57300
C141        C  0.54497443  0.37149548  0.15727111     0.26800
C142        C  0.55262073  0.40802945  0.15974672     0.26800
C143        C  0.45099884  0.39207518  0.15902174     0.26800
C144        C  0.45865258  0.42869818  0.15873692     0.26800
C145        C  0.50981373  0.34872012  0.14947375     0.35500
C146        C  0.47354665  0.35654870  0.15100673     0.35500
C147        C  0.53023221  0.44400241  0.15346093     0.35500
C148        C  0.49393502  0.45188494  0.15235678     0.35500
C149        C  0.56754302  0.37324075  0.16458874    -0.22000
C150        C  0.57233989  0.39633186  0.16629776    -0.22000
C151        C  0.43127519  0.40329564  0.16640100    -0.22000
C152        C  0.43609329  0.42645230  0.16615271    -0.22000
C153        C  0.49839558  0.32904254  0.14249874    -0.23100
C154        C  0.47537230  0.33398259  0.14354110    -0.23100
C155        C  0.52841550  0.46688855  0.14698245    -0.23100
C156        C  0.50538602  0.47188114  0.14627940    -0.23100
C157        C  0.53383466  0.35068217  0.15177259    -0.18400
C158        C  0.55113121  0.43210963  0.15678221    -0.18400
C159        C  0.46990049  0.44985292  0.15478795    -0.18400
C160        C  0.45264820  0.36817944  0.15506145    -0.18400
H161        H  0.57940546  0.35932412  0.16801855     0.14500
H162        H  0.58868411  0.40367061  0.17123303     0.14500
H163        H  0.41497480  0.39561972  0.17108923     0.14500
H164        H  0.42426794  0.44009351  0.17069087     0.14500
H165        H  0.50585461  0.31280201  0.13730641     0.12800
H166        H  0.46156279  0.32231815  0.13921033     0.12800
H167        H  0.54221829  0.47874148  0.14305628     0.12800
H168        H  0.49793589  0.48834337  0.14183080     0.12800
H169        H  0.52070779  0.39652753  0.14607583     0.26000
H170        H  0.48295465  0.40443822  0.14587830     0.26000
N171        N  0.49477469  0.43259561  0.88823330    -0.36700
N172        N  0.53713816  0.40729770  0.88201640    -0.57300
N173        N  0.51124072  0.36415161  0.88208879    -0.36700
N174        N  0.46883257  0.38984980  0.88556121    -0.57300
C175        C  0.50949806  0.45003918  0.88369611     0.26800
C176        C  0.47326690  0.44080891  0.88519141     0.26800
C177        C  0.53215305  0.35679026  0.87507764     0.26800
C178        C  0.49589290  0.34756139  0.87656225     0.26800
C179        C  0.54600818  0.42821797  0.88685412     0.35500
C180        C  0.55472207  0.39221734  0.88350006     0.35500
C181        C  0.45160866  0.40433649  0.89124994     0.35500
C182        C  0.46027072  0.36836358  0.88767419     0.35500
C183        C  0.49723499  0.46962169  0.87790845    -0.22000
C184        C  0.47434587  0.46377548  0.87875959    -0.22000
C185        C  0.53012468  0.33514307  0.86529268    -0.22000
C186        C  0.50723235  0.32932516  0.86622500    -0.22000
C187        C  0.56933815  0.42647227  0.89117369    -0.23100
C188        C  0.57485310  0.40363576  0.88913958    -0.23100
C189        C  0.43204065  0.39200252  0.89707563    -0.23100
C190        C  0.43751417  0.36919046  0.89472729    -0.23100
C191        C  0.53361782  0.44905029  0.88597484    -0.18400
C192        C  0.45269315  0.42850266  0.88930212    -0.18400
C193        C  0.47205043  0.34815001  0.88125882    -0.18400
C194        C  0.55317927  0.36853611  0.87836668    -0.18400
H195        H  0.50406370  0.48640413  0.87362515     0.14500
H196        H  0.46011103  0.47521663  0.87523222     0.14500
H197        H  0.54373935  0.32460874  0.85820198     0.14500
H198        H  0.49980171  0.31345978  0.86000415     0.14500
H199        H  0.58117885  0.44023008  0.89519720     0.12800
H200        H  0.59180868  0.39633076  0.89136149     0.12800
H201        H  0.41540969  0.39873331  0.90203888     0.12800
H202        H  0.42595686  0.35486550  0.89750572     0.12800
H203        H  0.49901037  0.41688408  0.89557085     0.26000
H204        H  0.50808554  0.37853274  0.89216686     0.26000
N205        N  0.00372058  0.52281231  0.03662538    -0.36700
N206        N  0.02972941  0.51415775  0.99529318    -0.57300
N207        N  0.98712152  0.51060460  0.96901012    -0.36700
N208        N  0.96125286  0.52204499  0.01036379    -0.57300
C209        C  0.02510782  0.52795140  0.04405017     0.26800
C210        C  0.98878451  0.53110552  0.05235992     0.26800
C211        C  0.00279144  0.51164071  0.95179330     0.26800
C212        C  0.96638665  0.51571845  0.95981492     0.26800
C213        C  0.04705119  0.51289140  0.01063811     0.35500
C214        C  0.03830322  0.50651460  0.97515484     0.35500
C215        C  0.95225203  0.52284779  0.03178103     0.35500
C216        C  0.94354321  0.51774375  0.99603052     0.35500
C217        C  0.02372430  0.53955846  0.06481117    -0.22000
C218        C  0.00076567  0.54149262  0.07009094    -0.22000
C219        C  0.99179153  0.51680943  0.93133210    -0.22000
C220        C  0.96883197  0.51933526  0.93638099    -0.22000
C221        C  0.06671572  0.50432625  0.00026303    -0.23100
C222        C  0.06117198  0.50027364  0.97774480    -0.23100
C223        C  0.92871853  0.51916223  0.03100398    -0.23100
C224        C  0.92318503  0.51610209  0.00832651    -0.23100
C225        C  0.04583192  0.52114341  0.03335392    -0.18400
C226        C  0.96471812  0.52825158  0.05186464    -0.18400
C227        C  0.94522696  0.51682762  0.97185527    -0.18400
C228        C  0.02670410  0.50777374  0.95392981    -0.18400
H229        H  0.03779767  0.54572405  0.07523812     0.14500
H230        H  0.99369166  0.54949309  0.08533223     0.14500
H231        H  0.99951040  0.51875752  0.91450275     0.14500
H232        H  0.95549869  0.52362411  0.92418513     0.14500
H233        H  0.08342891  0.50178246  0.00797131     0.12800
H234        H  0.07280975  0.49402861  0.96461529     0.12800
H235        H  0.91670059  0.51902629  0.04522941     0.12800
H236        H  0.90611367  0.51311107  0.00163476     0.12800
H237        H  0.99959381  0.51182564  0.02321943     0.26000
H238        H  0.99013445  0.50495272  0.98565577     0.26000
N239        N  0.64555340  0.87844425  0.02859582    -0.36700
N240        N  0.65013699  0.92213098  0.00495342    -0.57300
N241        N  0.64812703  0.89807815  0.96110087    -0.36700
N242        N  0.64623841  0.85430592  0.98474497    -0.57300
C243        C  0.65061243  0.89247558  0.04640798     0.26800
C244        C  0.64954771  0.85663897  0.03564616     0.26800
C245        C  0.65424842  0.91936350  0.95396049     0.26800
C246        C  0.65156545  0.88355005  0.94326761     0.26800
C247        C  0.64600377  0.92994989  0.02643672     0.35500
C248        C  0.64769792  0.94036576  0.99075217     0.35500
C249        C  0.64139037  0.83649902  0.99885184     0.35500
C250        C  0.64179234  0.84699030  0.96320022     0.35500
C251        C  0.65772048  0.87947971  0.06503164    -0.22000
C252        C  0.65717518  0.85685804  0.05820794    -0.22000
C253        C  0.66145123  0.91832393  0.93122171    -0.22000
C254        C  0.65988237  0.89572080  0.92454096    -0.22000
C255        C  0.64122715  0.95328910  0.02591114    -0.23100
C256        C  0.64249493  0.95992783  0.00334748    -0.23100
C257        C  0.63391689  0.81775489  0.98623187    -0.23100
C258        C  0.63414297  0.82441650  0.96362217    -0.23100
C259        C  0.64781154  0.91659730  0.04664354    -0.18400
C260        C  0.64499374  0.83650055  0.02280944    -0.18400
C261        C  0.64611579  0.85986536  0.94306294    -0.18400
C262        C  0.65132592  0.93987463  0.96672553    -0.18400
H263        H  0.66273517  0.88566042  0.08181225     0.14500
H264        H  0.66165253  0.84221484  0.06877653     0.14500
H265        H  0.66688620  0.93236559  0.92030065     0.14500
H266        H  0.66402915  0.88909038  0.90766469     0.14500
H267        H  0.63743521  0.96446313  0.04028270     0.12800
H268        H  0.64001686  0.97725409  0.99704327     0.12800
H269        H  0.62895644  0.80098530  0.99261963     0.12800
H270        H  0.62942993  0.81377635  0.94914395     0.12800
H271        H  0.63723440  0.88323977  0.01360845     0.26000
H272        H  0.63935690  0.89424752  0.97614197     0.26000
N273        N  0.98964312  0.27620309  0.04222606    -0.36700
N274        N  0.02751825  0.26503048  0.01142273    -0.57300
N275        N  0.99618557  0.26855201  0.97264130    -0.36700
N276        N  0.95812220  0.27675612  0.00342581    -0.57300
C277        C  0.00596484  0.27023035  0.05761588     0.26800
C278        C  0.96921625  0.27595225  0.05340155     0.26800
C279        C  0.01513214  0.25999829  0.96228035     0.26800
C280        C  0.97839461  0.26524084  0.95812109     0.26800
C281        C  0.03953297  0.26815750  0.03098179     0.35500
C282        C  0.04307769  0.26485543  0.99414782     0.35500
C283        C  0.94362672  0.28398836  0.02004661     0.35500
C284        C  0.94706565  0.27983478  0.98329726     0.35500
C285        C  0.99585854  0.26659553  0.07891902    -0.22000
C286        C  0.97267387  0.27021013  0.07626412    -0.22000
C287        C  0.00940676  0.25127212  0.94090013    -0.22000
C288        C  0.98617293  0.25444624  0.93832766    -0.22000
C289        C  0.06285029  0.26945771  0.02615628    -0.23100
C290        C  0.06508935  0.26744898  0.00277859    -0.23100
C291        C  0.92319704  0.29157117  0.01045107    -0.23100
C292        C  0.92543167  0.28906092  0.98713921    -0.23100
C293        C  0.02984876  0.26893413  0.05324122    -0.18400
C294        C  0.94767697  0.28176049  0.04381325    -0.18400
C295        C  0.95560117  0.27285709  0.96168496    -0.18400
C296        C  0.03774155  0.26152336  0.97077742    -0.18400
H297        H  0.00430945  0.26184923  0.09476723     0.14500
H298        H  0.95985228  0.26886947  0.08970866     0.14500
H299        H  0.02084293  0.24357847  0.92837747     0.14500
H300        H  0.97621696  0.24961337  0.92342538     0.14500
H301        H  0.07679403  0.27171081  0.03820352     0.12800
H302        H  0.08109606  0.26776619  0.99326166     0.12800
H303        H  0.90809686  0.29789123  0.01932496     0.12800
H304        H  0.91244532  0.29317891  0.97452187     0.12800
H305        H  0.99256136  0.28237746  0.02575707     0.26000
H306        H  0.99606331  0.27867334  0.98730373     0.26000
N307        N  0.38195704  0.90583512  0.03882763    -0.36700
N308        N  0.38472403  0.86644844  0.00792606    -0.57300
N309        N  0.38353092  0.89768831  0.96914500    -0.36700
N310        N  0.37812532  0.93648699  0.00011375    -0.57300
C311        C  0.37842430  0.88822955  0.05354757     0.26800
C312        C  0.37440394  0.92514109  0.04937503     0.26800
C313        C  0.38100747  0.87729675  0.95832619     0.26800
C314        C  0.37699383  0.91428944  0.95424793     0.26800
C315        C  0.38956080  0.85583476  0.02798675     0.35500
C316        C  0.39033701  0.85148032  0.99107687     0.35500
C317        C  0.38000979  0.95224314  0.01698948     0.35500
C318        C  0.38106608  0.94795630  0.98018733     0.35500
C319        C  0.36865044  0.89642024  0.07371198    -0.22000
C320        C  0.36606213  0.91973606  0.07105057    -0.22000
C321        C  0.37291095  0.88100621  0.93623559    -0.22000
C322        C  0.37041546  0.90437718  0.93365319    -0.22000
C323        C  0.39799663  0.83392366  0.02390754    -0.23100
C324        C  0.39849272  0.83115979  0.00048644    -0.23100
C325        C  0.38422997  0.97382136  0.00777245    -0.23100
C326        C  0.38478357  0.97112132  0.98439209    -0.23100
C327        C  0.38525480  0.86524073  0.04991930    -0.18400
C328        C  0.37598258  0.94764670  0.04041289    -0.18400
C329        C  0.37826257  0.93818158  0.95826507    -0.18400
C330        C  0.38715342  0.85557583  0.96737223    -0.18400
H331        H  0.36398487  0.88661977  0.08884246     0.14500
H332        H  0.35899326  0.93139312  0.08371406     0.14500
H333        H  0.36935104  0.86821474  0.92323700     0.14500
H334        H  0.36466285  0.91308689  0.91827017     0.14500
H335        H  0.40316081  0.82122539  0.03647853     0.12800
H336        H  0.40417252  0.81592359  0.99144659     0.12800
H337        H  0.38625483  0.98989454  0.01689226     0.12800
H338        H  0.38722138  0.98472283  0.97191496     0.12800
H339        H  0.39149463  0.90504059  0.02372367     0.26000
H340        H  0.39180660  0.90028159  0.98470613     0.26000
N341        N  0.98755252  0.93447935  0.61165966    -0.36700
N342        N  0.96163803  0.89165553  0.61093829    -0.57300
N343        N  0.00411627  0.86590817  0.60498417    -0.36700
N344        N  0.03006641  0.90838387  0.60862433    -0.57300
C345        C  0.96658885  0.94201925  0.61833346     0.26800
C346        C  0.00292456  0.95088249  0.61755075     0.26800
C347        C  0.98921992  0.84860287  0.60947880     0.26800
C348        C  0.02555718  0.85752744  0.60826940     0.26800
C349        C  0.94400986  0.90673057  0.60973225     0.35500
C350        C  0.95269815  0.87072193  0.60639844     0.35500
C351        C  0.03865927  0.92987581  0.60685206     0.35500
C352        C  0.04742282  0.89394149  0.60317713     0.35500
C353        C  0.96858550  0.96367248  0.62808361    -0.22000
C354        C  0.99153069  0.96922508  0.62767749    -0.22000
C355        C  0.00134901  0.82892458  0.61532879    -0.22000
C356        C  0.02426399  0.83455043  0.61456233    -0.22000
C357        C  0.92377958  0.89535461  0.60451315    -0.23100
C358        C  0.92929867  0.87253269  0.60229773    -0.23100
C359        C  0.06152882  0.92907936  0.60012440    -0.23100
C360        C  0.06708393  0.90628553  0.59779302    -0.23100
C361        C  0.94558369  0.93031786  0.61506546    -0.18400
C362        C  0.02686592  0.95004596  0.61344302    -0.18400
C363        C  0.04631068  0.86978744  0.60497825    -0.18400
C364        C  0.96501188  0.84981509  0.60763506    -0.18400
H365        H  0.95493816  0.97435180  0.63489062     0.14500
H366        H  0.99894723  0.98499703  0.63413707     0.14500
H367        H  0.99442821  0.81222807  0.61978733     0.14500
H368        H  0.03836162  0.82300981  0.61830767     0.14500
H369        H  0.90677610  0.90269491  0.60277825     0.12800
H370        H  0.91736479  0.85881427  0.59843063     0.12800
H371        H  0.07312823  0.94341728  0.59761179     0.12800
H372        H  0.08380228  0.89956166  0.59312233     0.12800
H373        H  0.99084662  0.92003472  0.60171594     0.26000
H374        H  0.99999925  0.88175376  0.59786199     0.26000
N375        N  0.01025948  0.93162642  0.35480798    -0.36700
N376        N  0.96674802  0.90709734  0.35443080    -0.57300
N377        N  0.99148130  0.86387809  0.35342554    -0.36700
N378        N  0.03497117  0.88841350  0.35659160    -0.57300
C379        C  0.99549343  0.94887266  0.35986760     0.26800
C380        C  0.03157851  0.93900596  0.36030591     0.26800
C381        C  0.96983585  0.85640078  0.35746516     0.26800
C382        C  0.00584655  0.84648954  0.35899436     0.26800
C383        C  0.95901725  0.92866363  0.35070579     0.35500
C384        C  0.94909944  0.89285959  0.34955574     0.35500
C385        C  0.05300723  0.90270753  0.35343258     0.35500
C386        C  0.04301646  0.86689203  0.35327220     0.35500
C387        C  0.00757714  0.96742436  0.36865021    -0.22000
C388        C  0.03037877  0.96122116  0.36884277    -0.22000
C389        C  0.97045743  0.83396204  0.36553818    -0.22000
C390        C  0.99320476  0.82769299  0.36647847    -0.22000
C391        C  0.93634293  0.92813748  0.34347766    -0.23100
C392        C  0.93005705  0.90540797  0.34272781    -0.23100
C393        C  0.07264556  0.89021941  0.34829273    -0.23100
C394        C  0.06632033  0.86748141  0.34825804    -0.23100
C395        C  0.97162921  0.94883135  0.35541552    -0.18400
C396        C  0.05221205  0.92675012  0.35651220    -0.18400
C397        C  0.02995006  0.84666063  0.35624501    -0.18400
C398        C  0.94950498  0.86883394  0.35282606    -0.18400
H399        H  0.00071751  0.98383851  0.37411469     0.14500
H400        H  0.04449378  0.97189536  0.37451659     0.14500
H401        H  0.95601059  0.82316188  0.37014548     0.14500
H402        H  0.99968760  0.81111709  0.37191538     0.14500
H403        H  0.92539795  0.94262125  0.33941240     0.12800
H404        H  0.91331063  0.89889434  0.33798863     0.12800
H405        H  0.08978299  0.89676826  0.34516804     0.12800
H406        H  0.07761633  0.85303049  0.34509085     0.12800
H407        H  0.00639483  0.91685792  0.34557372     0.26000
H408        H  0.99601675  0.87890109  0.34487120     0.26000
C409        C  0.72070452  0.79411708  0.69743392     0.80100
N410        N  0.72252729  0.77392297  0.70946398    -0.78200
C411        C  0.71887430  0.75343412  0.69844652     0.82500
N412        N  0.71211747  0.75343903  0.67614912    -0.78200
C413        C  0.70887702  0.77341498  0.66459886     0.82600
N414        N  0.71389477  0.79349909  0.67516291    -0.79900
C415        C  0.69964761  0.99997713  0.72536413     0.80100
N416        N  0.67780674  0.00069283  0.71729092    -0.78200
C417        C  0.66765690  0.02087368  0.71167690     0.82500
N418        N  0.67897577  0.04077632  0.71598348    -0.78200
C419        C  0.70086698  0.04061356  0.72400668     0.82600
N420        N  0.71165718  0.02006030  0.72792146    -0.79900
C421        C  0.89625144  0.60124660  0.71837048     0.80100
N422        N  0.87603014  0.61292763  0.72131283    -0.78200
C423        C  0.85562442  0.60162308  0.71834960     0.82500
N424        N  0.85565108  0.57944333  0.71111984    -0.78200
C425        C  0.87561489  0.56828835  0.70669852     0.82600
N426        N  0.89574566  0.57911876  0.71098307    -0.79900
C427        C  0.10211321  0.61925041  0.70122269     0.80100
N428        N  0.12235767  0.62502894  0.71161892    -0.78200
C429        C  0.14269317  0.61721533  0.70267725     0.82500
N430        N  0.14255362  0.60342548  0.68386806    -0.78200
C431        C  0.12250002  0.59749436  0.67363780     0.82600
N432        N  0.10248047  0.60570913  0.68227087    -0.79900
C433        C  0.70066017  0.62395712  0.89516978     0.80100
N434        N  0.71262873  0.62551561  0.87490165    -0.78200
C435        C  0.70157428  0.62124544  0.85459462     0.82500
N436        N  0.67935769  0.61416943  0.85489966    -0.78200
C437        C  0.66800333  0.61082839  0.87497987     0.82600
N438        N  0.67854716  0.61647435  0.89488413    -0.79900
C439        C  0.71951768  0.60002584  0.10050636     0.80100
N440        N  0.72450654  0.61143042  0.12046552    -0.78200
C441        C  0.72271501  0.60009972  0.14104105     0.82500
N442        N  0.71470209  0.57826160  0.14151318    -0.78200
C443        C  0.70769017  0.56765016  0.12209625     0.82600
N444        N  0.71068437  0.57840697  0.10163187    -0.79900
C445        C  0.89257938  0.62448892  0.30717644     0.80100
N446        N  0.87386672  0.62633396  0.29310526    -0.78200
C447        C  0.85309033  0.61793880  0.30031320     0.82500
N448        N  0.85152583  0.60689879  0.32081455    -0.78200
C449        C  0.87021190  0.60420782  0.33440592     0.82600
N450        N  0.89045451  0.61365299  0.32776216    -0.79900
C451        C  0.09928926  0.61299756  0.28662508     0.80100
N452        N  0.09976773  0.59186697  0.29650779    -0.78200
C453        C  0.11951343  0.57959410  0.29763866     0.82500
N454        N  0.13899756  0.58863862  0.28872938    -0.78200
C455        C  0.13929754  0.61014371  0.27981334     0.82600
N456        N  0.11931132  0.62256357  0.27868455    -0.79900
C457        C  0.70203073  0.79591154  0.27336941     0.80100
N458        N  0.71355736  0.77565607  0.27029057    -0.78200
C459        C  0.70202069  0.75531336  0.27242236     0.82500
N460        N  0.67963364  0.75534210  0.27901111    -0.78200
C461        C  0.66856822  0.77526928  0.28384462     0.82600
N462        N  0.67969641  0.79545026  0.28030418    -0.79900
C463        C  0.73433869  0.99827824  0.30351904     0.80100
N464        N  0.72678209  0.99858584  0.32561483    -0.78200
C465        C  0.72085999  0.01851034  0.33609266     0.82500
N466        N  0.72419651  0.03860527  0.32477280    -0.78200
C467        C  0.73163980  0.03884087  0.30266393     0.82600
N468        N  0.73594856  0.01853278  0.29162475    -0.79900
C469        C  0.89436224  0.18061897  0.70596595     0.80100
N470        N  0.89356728  0.18722831  0.68359294    -0.78200
C471        C  0.87328354  0.18989957  0.67256367     0.82500
N472        N  0.85357464  0.18449612  0.68374869    -0.78200
C473        C  0.85374598  0.17818552  0.70617725     0.82600
N474        N  0.87422014  0.17693784  0.71768524    -0.79900
C475        C  0.10061955  0.20084023  0.72510554     0.80100
N476        N  0.12037844  0.18950126  0.73103069    -0.78200
C477        C  0.14102097  0.19678023  0.72227982     0.82500
N478        N  0.14165093  0.21482211  0.70752055    -0.78200
C479        C  0.12220057  0.22623012  0.70180966     0.82600
N480        N  0.10190283  0.21926556  0.71085811    -0.79900
C481        C  0.29720558  0.79563920  0.71871510     0.80100
N482        N  0.31719152  0.79467059  0.70663013    -0.78200
C483        C  0.32645482  0.77428865  0.70014597     0.82500
N484        N  0.31578859  0.75452699  0.70641386    -0.78200
C485        C  0.29606276  0.75490318  0.71889489     0.82600
N486        N  0.28642899  0.77557676  0.72486999    -0.79900
C487        C  0.28032449  0.00341284  0.70273791     0.80100
N488        N  0.29389461  0.00387445  0.68378905    -0.78200
C489        C  0.30160113  0.02390484  0.67473125     0.82500
N490        N  0.29503345  0.04404237  0.68457485    -0.78200
C491        C  0.28097534  0.04418572  0.70331498     0.82600
N492        N  0.27378679  0.02374036  0.71269708    -0.79900
C493        C  0.71922975  0.19407360  0.90078310     0.80100
N494        N  0.72107387  0.18234245  0.88044510    -0.78200
C495        C  0.71817982  0.19391104  0.86011382     0.82500
N496        N  0.71190976  0.21638971  0.86042089    -0.78200
C497        C  0.70848728  0.22760751  0.88052172     0.82600
N498        N  0.71299314  0.21655108  0.90046751    -0.79900
C499        C  0.69638358  0.17377322  0.10780829     0.80100
N500        N  0.70898435  0.16923397  0.12716156    -0.78200
C501        C  0.69904092  0.17195057  0.14834280     0.82500
N502        N  0.67738777  0.18030188  0.14994328    -0.78200
C503        C  0.66561305  0.18683068  0.13103955     0.82600
N504        N  0.67498983  0.18300158  0.11002674    -0.79900
C505        C  0.27606819  0.59457254  0.89578782     0.80100
N506        N  0.27191944  0.60699005  0.87620273    -0.78200
C507        C  0.27994799  0.59913180  0.85548403     0.82500
N508        N  0.29232057  0.57937083  0.85465566    -0.78200
C509        C  0.29614748  0.56683921  0.87391257     0.82600
N510        N  0.28765866  0.57439191  0.89421830    -0.79900
C511        C  0.29662284  0.61466750  0.10325802     0.80100
N512        N  0.31866168  0.60709952  0.10477764    -0.78200
C513        C  0.32876563  0.60355644  0.12540535     0.82500
N514        N  0.31702348  0.60896089  0.14476400    -0.78200
C515        C  0.29487958  0.61615142  0.14388451     0.82600
N516        N  0.28426553  0.61840479  0.12301587    -0.79900
C517        C  0.27757011  0.79697370  0.29490096     0.80100
N518        N  0.28734460  0.79642569  0.31603141    -0.78200
C519        C  0.29431709  0.77638813  0.32557308     0.82500
N520        N  0.29019625  0.75646874  0.31436618    -0.78200
C521        C  0.28052475  0.75643861  0.29324070     0.82600
N522        N  0.27474252  0.77685403  0.28300223    -0.79900
C523        C  0.29952659  0.00292809  0.28031468     0.80100
N524        N  0.32192885  0.00332760  0.28688448    -0.78200
C525        C  0.33276251  0.02343212  0.29151813     0.82500
N526        N  0.32131252  0.04343354  0.28821276    -0.78200
C527        C  0.29884348  0.04355370  0.28209541     0.82600
N528        N  0.28761157  0.02316954  0.27872766    -0.79900
C529        C  0.89529502  0.20414777  0.27366429     0.80100
N530        N  0.87543374  0.19164174  0.27182824    -0.78200
C531        C  0.85480932  0.20156303  0.27742898     0.82500
N532        N  0.85440605  0.22320968  0.28611702    -0.78200
C533        C  0.87417373  0.23502159  0.28967051     0.82600
N534        N  0.89434039  0.22565474  0.28268019    -0.79900
C535        C  0.10045889  0.17700955  0.29196875     0.80100
N536        N  0.12120951  0.17391674  0.28113435    -0.78200
C537        C  0.14109611  0.17551029  0.29364047     0.82500
N538        N  0.14004547  0.18156881  0.31607455    -0.78200
C539        C  0.11976473  0.18655517  0.32631808     0.82600
N540        N  0.10008064  0.18353085  0.31436772    -0.79900
C541        C  0.29668834  0.17462783  0.89994526     0.80100
N542        N  0.31483991  0.18919708  0.89987475    -0.78200
C543        C  0.32253157  0.19904417  0.88024781     0.82500
N544        N  0.31157239  0.19441467  0.86023510    -0.78200
C545        C  0.29366024  0.17941848  0.85960537     0.82600
N546        N  0.28624866  0.16918581  0.87958239    -0.79900
C547        C  0.28978657  0.19253485  0.10621900     0.80100
N548        N  0.28235477  0.18259999  0.12628359    -0.78200
C549        C  0.28370086  0.19468829  0.14645246     0.82500
N550        N  0.29237898  0.21628874  0.14632000    -0.78200
C551        C  0.30086527  0.22573709  0.12680642     0.82600
N552        N  0.29942105  0.21379201  0.10690635    -0.79900
C553        C  0.20439411  0.29635186  0.22376059     0.80100
N554        N  0.21528233  0.27591484  0.22796348    -0.78200
C555        C  0.20455845  0.25569098  0.22247632     0.82500
N556        N  0.18342745  0.25619623  0.21267607    -0.78200
C557        C  0.17304458  0.27645250  0.20761270     0.82600
N558        N  0.18355625  0.29636448  0.21345057    -0.79900
C559        C  0.21229736  0.50277819  0.21111391     0.80100
N560        N  0.21853543  0.52362741  0.21990860    -0.78200
C561        C  0.21491308  0.54315588  0.20729500     0.82500
N562        N  0.20526668  0.54162630  0.18615753    -0.78200
C563        C  0.19839554  0.52103527  0.17769734     0.82600
N564        N  0.20200544  0.50177192  0.19029766    -0.79900
C565        C  0.40201435  0.11764589  0.21317268     0.80100
N566        N  0.38152949  0.12331321  0.22345394    -0.78200
C567        C  0.36145164  0.12102594  0.21130931     0.82500
N568        N  0.36207752  0.11204961  0.18979707    -0.78200
C569        C  0.38214384  0.10497975  0.18026881     0.82600
N570        N  0.40197289  0.10846257  0.19182878    -0.79900
C571        C  0.60903568  0.08092052  0.22369671     0.80100
N572        N  0.61351536  0.06104010  0.21213514    -0.78200
C573        C  0.63530276  0.05516540  0.20614565     0.82500
N574        N  0.65286367  0.06881773  0.21282459    -0.78200
C575        C  0.64900503  0.08878688  0.22413310     0.82600
N576        N  0.62690921  0.09531603  0.22909346    -0.79900
C577        C  0.39619153  0.10451370  0.77528261     0.80100
N578        N  0.39740136  0.09158898  0.79459016    -0.78200
C579        C  0.37836378  0.08654403  0.80700012     0.82500
N580        N  0.35779902  0.09503586  0.80016857    -0.78200
C581        C  0.35597012  0.10753896  0.78055870     0.82600
N582        N  0.37526495  0.11218687  0.76778085    -0.79900
C583        C  0.60088378  0.10788188  0.79448659     0.80100
N584        N  0.60136994  0.09683150  0.81505691    -0.78200
C585        C  0.62096877  0.09573426  0.82759998     0.82500
N586        N  0.64028896  0.10585368  0.81934576    -0.78200
C587        C  0.64057437  0.11587937  0.79831828     0.82600
N588        N  0.62076898  0.11694713  0.78577851    -0.79900
C589        C  0.39676364  0.69306270  0.21917295     0.80100
N590        N  0.39598583  0.71470061  0.21052221    -0.78200
C591        C  0.37580660  0.72507223  0.20562152     0.82500
N592        N  0.35596818  0.71393641  0.21044463    -0.78200
C593        C  0.35612976  0.69215450  0.21880602     0.82600
N594        N  0.37666360  0.68124948  0.22263288    -0.79900
C595        C  0.60366631  0.67302982  0.19642192     0.80100
N596        N  0.60443216  0.67822545  0.17371268    -0.78200
C597        C  0.62462920  0.68243395  0.16289306     0.82500
N598        N  0.64448590  0.67965948  0.17465539    -0.78200
C599        C  0.64425931  0.67464298  0.19743255     0.82600
N600        N  0.62370039  0.67207895  0.20865290    -0.79900
C601        C  0.76801471  0.29537645  0.20708701     0.80100
N602        N  0.76538717  0.27480721  0.21818211    -0.78200
C603        C  0.76928353  0.25480605  0.20646272     0.82500
N604        N  0.77730830  0.25560351  0.18459947    -0.78200
C605        C  0.78204824  0.27595463  0.17431685     0.82600
N606        N  0.77661285  0.29570627  0.18538113    -0.79900
C607        C  0.79279399  0.49879321  0.22307294     0.80100
N608        N  0.78222620  0.51949652  0.22678181    -0.78200
C609        C  0.79412227  0.53943734  0.22284496     0.82500
N610        N  0.81567748  0.53848841  0.21397513    -0.78200
C611        C  0.82548898  0.51807523  0.20854278     0.82600
N612        N  0.81417252  0.49838396  0.21367394    -0.79900
C613        C  0.80402811  0.12099978  0.39975115     0.80100
N614        N  0.79186836  0.12480047  0.37998978    -0.78200
C615        C  0.80237966  0.12180503  0.35911913     0.82500
N616        N  0.82426439  0.11380635  0.35820415    -0.78200
C617        C  0.83582021  0.10842543  0.37763895     0.82600
N618        N  0.82578873  0.11265254  0.39822846    -0.79900
C619        C  0.77514045  0.10261362  0.60484676     0.80100
N620        N  0.77304183  0.11368037  0.62549234    -0.78200
C621        C  0.77666978  0.10170671  0.64545906     0.82500
N622        N  0.78406087  0.07955208  0.64449239    -0.78200
C623        C  0.78773376  0.06908845  0.62399449     0.82600
N624        N  0.78239728  0.08048133  0.60445887    -0.79900
C625        C  0.20346823  0.68170240  0.39689792     0.80100
N626        N  0.18151020  0.68954867  0.39683841    -0.78200
C627        C  0.17042731  0.69407819  0.37694145     0.82500
N628        N  0.18112082  0.68954093  0.35675289    -0.78200
C629        C  0.20322740  0.68213171  0.35624098     0.82600
N630        N  0.21480698  0.67878368  0.37644109    -0.79900
C631        C  0.21954518  0.69959921  0.60345369     0.80100
N632        N  0.22502901  0.68804406  0.62319884    -0.78200
C633        C  0.21784818  0.69649030  0.64397665     0.82500
N634        N  0.20492713  0.71592540  0.64477781    -0.78200
C635        C  0.19965425  0.72753082  0.62529201     0.82600
N636        N  0.20724164  0.71935991  0.60486491    -0.79900
C637        C  0.79477397  0.29518713  0.77649981     0.80100
N638        N  0.81527354  0.29482431  0.78759529    -0.78200
C639        C  0.82395928  0.27500027  0.79615727     0.82500
N640        N  0.81262969  0.25505493  0.79230861    -0.78200
C641        C  0.79218084  0.25486793  0.78124867     0.82600
N642        N  0.78271726  0.27512897  0.77390354    -0.79900
C643        C  0.77864651  0.50022131  0.79402747     0.80100
N644        N  0.78630994  0.49981504  0.81596289    -0.78200
C645        C  0.79143574  0.51936084  0.82743105     0.82500
N646        N  0.78716652  0.53994483  0.81721354    -0.78200
C647        C  0.77932901  0.54092419  0.79520469     0.82600
N648        N  0.77588215  0.52093948  0.78321459    -0.79900
C649        C  0.77793587  0.70278198  0.39308432     0.80100
N650        N  0.78564147  0.72473012  0.39114384    -0.78200
C651        C  0.78986618  0.73440194  0.37039296     0.82500
N652        N  0.78514734  0.72219212  0.35114369    -0.78200
C653        C  0.77760878  0.70010754  0.35251031     0.82600
N654        N  0.77462064  0.69006706  0.37359120    -0.79900
C655        C  0.79838182  0.67569765  0.59957325     0.80100
N656        N  0.78581691  0.67272899  0.61934320    -0.78200
C657        C  0.79633368  0.67545422  0.64022014     0.82500
N658        N  0.81850086  0.68259905  0.64105063    -0.78200
C659        C  0.83038890  0.68734303  0.62160670     0.82600
N660        N  0.82047612  0.68299872  0.60108234    -0.79900
C661        C  0.39652432  0.67300737  0.80051936     0.80100
N662        N  0.37635595  0.66684741  0.79018523    -0.78200
C663        C  0.35656776  0.67850715  0.79539704     0.82500
N664        N  0.35724152  0.69624486  0.81051482    -0.78200
C665        C  0.37705704  0.70195818  0.82131122     0.82600
N666        N  0.39649339  0.69011433  0.81634115    -0.79900
C667        C  0.59958331  0.69065086  0.77585022     0.80100
N668        N  0.62003010  0.67961951  0.77187038    -0.78200
C669        C  0.64022084  0.69151262  0.77420058     0.82500
N670        N  0.63973518  0.71365406  0.78137937    -0.78200
C671        C  0.61970286  0.72407845  0.78702556     0.82600
N672        N  0.59969503  0.71264813  0.78369851    -0.79900
O673        O  0.28460953  0.67089611  0.73522163    -0.88500
C674        C  0.25722577  0.66612623  0.79956782     0.87500
Mg675      Mg  0.26494531  0.68228541  0.70596216     1.58100
O676        O  0.26395884  0.61279458  0.77204174    -0.88200
O677        O  0.30348010  0.63995225  0.74572198    -0.75500
C678        C  0.16516981  0.62464653  0.71162907     0.92600
O679        O  0.24562949  0.70177820  0.75825079    -0.75400
O680        O  0.17312858  0.64403728  0.70521686    -0.82900
Mg681      Mg  0.28319095  0.69191893  0.76574930     1.58000
C682        C  0.21187425  0.56438920  0.77316190     0.92500
O683        O  0.32149578  0.68548214  0.77600935    -0.81100
H684        H  0.28407033  0.58990480  0.75612552    -0.06500
C685        C  0.19948092  0.64053533  0.76775692     0.87500
O686        O  0.25748267  0.64484069  0.69560314    -0.75600
O687        O  0.27243664  0.66233032  0.78517113    -0.88400
O688        O  0.22370612  0.57654692  0.78699497    -0.81200
C689        C  0.27285410  0.60925904  0.83335038     0.92600
C690        C  0.33381108  0.67103849  0.78712518     0.92500
Mg691      Mg  0.21543699  0.60418198  0.73365197     1.58000
O692        O  0.17700844  0.61044781  0.72352062    -0.81100
O693        O  0.25288630  0.59412376  0.74122991    -0.75400
O694        O  0.28748164  0.62082828  0.82160100    -0.81200
O695        O  0.29352269  0.72431356  0.74571750    -0.82900
O696        O  0.21141680  0.67444947  0.67762965    -0.81200
C697        C  0.26757943  0.59845547  0.75675447     0.86900
O698        O  0.22648843  0.63364765  0.71410216    -0.88400
O699        O  0.21415999  0.62564008  0.76391709    -0.88500
O700        O  0.19481831  0.65614404  0.75321420    -0.75500
Mg701      Mg  0.29362496  0.63177746  0.78314738     1.58000
O702        O  0.25328746  0.60371178  0.82535176    -0.82900
H703        H  0.30744375  0.65540904  0.71470504    -0.06600
O704        O  0.23458877  0.68334846  0.72728998    -0.88200
H705        H  0.21432335  0.70584892  0.74354993    -0.06500
H706        H  0.24254240  0.61363940  0.69122451    -0.06600
C707        C  0.23088975  0.69746068  0.74276043     0.86900
C708        C  0.29899426  0.65572043  0.73126994     0.87500
C709        C  0.24188661  0.63009654  0.69982123     0.87500
H710        H  0.19090802  0.64072703  0.78425965    -0.06600
O711        O  0.24129596  0.65175944  0.80370488    -0.75700
Mg712      Mg  0.20515130  0.66401032  0.71589750     1.58000
H713        H  0.25695896  0.68255621  0.80823102    -0.06600
C714        C  0.28674757  0.73254567  0.72658329     0.92500
O715        O  0.24480650  0.69310819  0.67408565    -0.82900
C716        C  0.22551340  0.68670786  0.66601799     0.92600
O717        O  0.32618983  0.65139120  0.79321877    -0.82900
Mg718      Mg  0.23356670  0.61454076  0.79333620     1.58200
O719        O  0.27466724  0.72080555  0.71252158    -0.81200
O720        O  0.20500016  0.57202759  0.75384257    -0.82900
O721        O  0.72352021  0.66780544  0.77706000    -0.88500
C722        C  0.72500958  0.60030739  0.75879696     0.87500
Mg723      Mg  0.71758419  0.69557467  0.75339220     1.58100
O724        O  0.77975490  0.62366689  0.76843477    -0.88200
O725        O  0.75100456  0.65739261  0.80067633    -0.75500
C726        C  0.78455579  0.67174840  0.66244212     0.92600
O727        O  0.69532264  0.64250537  0.73752415    -0.75400
O728        O  0.76486309  0.68062982  0.66625994    -0.82900
Mg729      Mg  0.69995047  0.63898100  0.77652547     1.58000
C730        C  0.83314859  0.61255562  0.72254217     0.92500
O731        O  0.70119976  0.63369696  0.81603950    -0.81100
H732        H  0.80163735  0.63990694  0.78922638    -0.06500
C733        C  0.75972998  0.62247411  0.70111564     0.87500
O734        O  0.75630928  0.70177606  0.74911158    -0.75600
O735        O  0.72865827  0.61632140  0.77224440    -0.88400
O736        O  0.81810123  0.60090269  0.73357163    -0.81200
C737        C  0.77532637  0.56379593  0.78469905     0.92600
C738        C  0.71276929  0.62385578  0.83191024     0.92500
Mg739      Mg  0.79706615  0.65546492  0.71753744     1.58000
O740        O  0.79587481  0.66139431  0.67815482    -0.81100
O741        O  0.80210783  0.65165581  0.75642692    -0.75400
O742        O  0.76433620  0.57893398  0.79636385    -0.81200
O743        O  0.66793637  0.66185559  0.77977065    -0.82900
O744        O  0.73346592  0.71557827  0.69843446    -0.81200
C745        C  0.79493076  0.63811577  0.77202470     0.86900
O746        O  0.76849796  0.67831179  0.72222006    -0.88400
O747        O  0.77312061  0.62691432  0.71696169    -0.88500
O748        O  0.74615122  0.63747236  0.69290505    -0.75500
Mg749      Mg  0.75655869  0.61848924  0.79673787     1.58000
O750        O  0.78380290  0.56821409  0.76492918    -0.82900
H751        H  0.73817613  0.68976808  0.79893870    -0.06600
O752        O  0.71740107  0.67078421  0.72558860    -0.88200
H753        H  0.69601150  0.65407263  0.70465844    -0.06500
H754        H  0.78902029  0.70150608  0.73698277    -0.06600
C755        C  0.70248806  0.65606991  0.72192539     0.86900
C756        C  0.73725095  0.67232509  0.79260839     0.87500
C757        C  0.77194469  0.69428907  0.73579294     0.87500
H758        H  0.75898163  0.60508923  0.69460884    -0.06600
O759        O  0.74039325  0.59288648  0.74519368    -0.75700
Mg760      Mg  0.74075781  0.67630244  0.69748967     1.58000
H761        H  0.70791916  0.59308326  0.75789457    -0.06600
C762        C  0.66306883  0.68108465  0.77044979     0.92500
O763        O  0.71300328  0.72660979  0.72907733    -0.82900
C764        C  0.72235584  0.73088735  0.70967005     0.92600
O765        O  0.73245858  0.61489850  0.82812020    -0.82900
Mg766      Mg  0.77896705  0.59900306  0.74053853     1.58200
O767        O  0.67811875  0.69302534  0.75966115    -0.81200
O768        O  0.82860429  0.63204232  0.71359574    -0.82900
O769        O  0.77080795  0.62255834  0.21839317    -0.88500
C770        C  0.70339006  0.62370593  0.23650276     0.87500
Mg771      Mg  0.79777973  0.61696906  0.24309356     1.58100
O772        O  0.72600869  0.67846309  0.22572053    -0.88200
O773        O  0.76067024  0.64985782  0.19437669    -0.75500
C774        C  0.77340427  0.68769856  0.33078810     0.92600
O775        O  0.74497790  0.59461045  0.25809725    -0.75400
O776        O  0.78159692  0.66756395  0.32779431    -0.82900
Mg777      Mg  0.74202231  0.59890812  0.21888060     1.58000
C778        C  0.71328875  0.73290751  0.26911895     0.92500
O779        O  0.73675863  0.59967539  0.17911814    -0.81100
H780        H  0.74155314  0.70009920  0.20400268    -0.06500
C781        C  0.72377629  0.66096433  0.29346960     0.87500
O782        O  0.80412308  0.65581921  0.24642737    -0.75600
O783        O  0.71929730  0.62737360  0.22283831    -0.88400
O784        O  0.70186740  0.71728452  0.25879915    -0.81200
C785        C  0.66660852  0.67206634  0.20904895     0.92600
C786        C  0.72669448  0.61131198  0.16338881     0.92500
Mg787      Mg  0.75689089  0.69785217  0.27552019     1.58000
O788        O  0.76303355  0.69857671  0.31479529    -0.81100
O789        O  0.75345867  0.70175310  0.23662382    -0.75400
O790        O  0.68254455  0.66162366  0.19810095    -0.81200
O791        O  0.76512490  0.56729883  0.21610068    -0.82900
O792        O  0.81636921  0.63464903  0.29798142    -0.81200
C793        C  0.74000031  0.69388522  0.22144927     0.86900
O794        O  0.77982372  0.66906104  0.27207719    -0.88400
O795        O  0.72843597  0.67371803  0.27711138    -0.88500
O796        O  0.73856885  0.64750168  0.30213733    -0.75500
Mg797      Mg  0.72166341  0.65499786  0.19801482     1.58000
O798        O  0.67003307  0.68132562  0.22859366    -0.82900
H799        H  0.79307158  0.63720093  0.19664158    -0.06600
O800        O  0.77217618  0.61770917  0.27025534    -0.88200
H801        H  0.75546847  0.59619375  0.29126300    -0.06500
H802        H  0.80360621  0.68897015  0.25721493    -0.06600
C803        C  0.75775937  0.60248791  0.27392498     0.86900
C804        C  0.77553702  0.63622832  0.20276668     0.87500
C805        C  0.79624133  0.67197906  0.25884059     0.87500
H806        H  0.70635159  0.66058539  0.29996418    -0.06600
O807        O  0.69568152  0.63921489  0.24977751    -0.75700
Mg808      Mg  0.77730562  0.64209484  0.29776552     1.58000
H809        H  0.69655973  0.60647481  0.23793672    -0.06600
C810        C  0.78386946  0.56235686  0.22621663     0.92500
O811        O  0.82761555  0.61238506  0.26874540    -0.82900
C812        C  0.83153410  0.62242256  0.28782781     0.92600
O813        O  0.71814707  0.63109266  0.16719050    -0.82900
Mg814      Mg  0.70078018  0.67804225  0.25322179     1.58200
O815        O  0.79535144  0.57728970  0.23754217    -0.81200
O816        O  0.73291750  0.72909395  0.27804450    -0.82900
O817        O  0.77851618  0.12716325  0.72832854    -0.88500
C818        C  0.75677296  0.19380369  0.72826546     0.87500
Mg819      Mg  0.75558150  0.09872809  0.72304680     1.58100
O820        O  0.76697524  0.17218520  0.78351821    -0.88200
O821        O  0.80104324  0.13906501  0.75605981    -0.75500
C822        C  0.66317527  0.12124829  0.78818754     0.92600
O823        O  0.73841952  0.15036172  0.69842000    -0.75400
O824        O  0.66816512  0.11305419  0.76852088    -0.82900
Mg825      Mg  0.77705368  0.15544944  0.70401910     1.58000
C826        C  0.72151405  0.18299986  0.83740968     0.92500
O827        O  0.81624885  0.16279649  0.70563027    -0.81100
H828        H  0.78830418  0.15771992  0.80615690    -0.06500
C829        C  0.70036067  0.17164722  0.76331518     0.87500
O830        O  0.75087594  0.09370003  0.76192724    -0.75600
O831        O  0.77101686  0.17849359  0.73219379    -0.88400
O832        O  0.73203019  0.19466431  0.82195173    -0.81200
C833        C  0.78138901  0.23232289  0.77727767     0.92600
C834        C  0.83127956  0.17380746  0.71723822     0.92500
Mg835      Mg  0.71719624  0.13964667  0.80180893     1.58000
O836        O  0.67782307  0.13217931  0.80037114    -0.81100
O837        O  0.75591604  0.14487125  0.80709117    -0.75400
O838        O  0.79318532  0.21719741  0.76653791    -0.81200
O839        O  0.78185077  0.13171115  0.67282794    -0.82900
O840        O  0.70064347  0.07839235  0.73856247    -0.81200
C841        C  0.77106954  0.15857710  0.79932736     0.86900
O842        O  0.72320269  0.11669779  0.77343212    -0.88400
O843        O  0.71570425  0.16787420  0.77748284    -0.88500
O844        O  0.69345967  0.15633988  0.74941893    -0.75500
Mg845      Mg  0.79524943  0.17785367  0.76038229     1.58000
O846        O  0.76200435  0.22771795  0.78646572    -0.82900
H847        H  0.80097129  0.10640241  0.74391720    -0.06600
O848        O  0.72742169  0.12304634  0.72195923    -0.88200
H849        H  0.70610419  0.13733727  0.69920447    -0.06500
H850        H  0.73869129  0.09454144  0.79459214    -0.06600
C851        C  0.72331529  0.13658021  0.70610361     0.86900
C852        C  0.79394220  0.12355097  0.74246581     0.87500
C853        C  0.73730104  0.10124849  0.77732369     0.87500
H854        H  0.69333524  0.18881055  0.76202476    -0.06600
O855        O  0.74308645  0.20122622  0.74362605    -0.75700
Mg856      Mg  0.69919595  0.11764041  0.74502164     1.58000
H857        H  0.75533232  0.20046416  0.71098399    -0.06600
C858        C  0.77312574  0.11210143  0.66835817     0.92500
O859        O  0.73173648  0.06728379  0.71886906    -0.82900
C860        C  0.71213279  0.06304719  0.72782208     0.92600
O861        O  0.82668001  0.18258715  0.73677548    -0.82900
Mg862      Mg  0.73856801  0.19622336  0.78251589     1.58200
O863        O  0.76245274  0.10025025  0.68357222    -0.81200
O864        O  0.71261101  0.16339932  0.83319584    -0.82900
C865        C  0.21133261  0.29599015  0.79833889     0.80100
N866        N  0.19164990  0.29440297  0.81088172    -0.78200
C867        C  0.18348276  0.27372201  0.81780189     0.82500
N868        N  0.19454686  0.25439276  0.81120683    -0.78200
C869        C  0.21405611  0.25539805  0.79854161     0.82600
N870        N  0.22292030  0.27633738  0.79237748    -0.79900
C871        C  0.20673939  0.50173679  0.78536749     0.80100
N872        N  0.18915589  0.50208966  0.80075125    -0.78200
C873        C  0.17855836  0.52207323  0.80635924     0.82500
N874        N  0.18618452  0.54198206  0.79694685    -0.78200
C875        C  0.20355343  0.54200602  0.78137304     0.82600
N876        N  0.21378798  0.52176069  0.77525470    -0.79900
O877        O  0.26208943  0.12795879  0.71548972    -0.88500
C878        C  0.19833483  0.13079064  0.74428973     0.87500
Mg879      Mg  0.29202187  0.11766951  0.73455369     1.58100
O880        O  0.22482074  0.18480366  0.73794429    -0.88200
O881        O  0.25064350  0.15881414  0.69714235    -0.75500
C882        C  0.28506084  0.17255087  0.83667479     0.92600
O883        O  0.24058464  0.09560353  0.75402667    -0.75400
O884        O  0.29148611  0.15330670  0.82829971    -0.82900
Mg885      Mg  0.23228388  0.10597558  0.71679609     1.58000
C886        C  0.22329628  0.23334280  0.79026517     0.92500
O887        O  0.22131007  0.11294382  0.67839853    -0.81100
H888        H  0.24005555  0.20826960  0.71792790    -0.06500
C889        C  0.22956269  0.15658183  0.80184751     0.87500
O890        O  0.30065737  0.15528485  0.74290349    -0.75600
O891        O  0.21225944  0.13492729  0.72869635    -0.88400
O892        O  0.20968849  0.22055734  0.77877177    -0.81200
C893        C  0.16323401  0.18719773  0.72967298     0.92600
C894        C  0.20905261  0.12742919  0.66721193     0.92500
Mg895      Mg  0.26315523  0.19408724  0.78644724     1.58000
O896        O  0.27356259  0.18716216  0.82488270    -0.81100
O897        O  0.25510214  0.20434346  0.74908202    -0.75400
O898        O  0.17513238  0.17581833  0.71510847    -0.81200
O899        O  0.25332010  0.07422356  0.70580733    -0.82900
O900        O  0.31991713  0.12474766  0.78813713    -0.81200
C901        C  0.23970745  0.19959736  0.73436244     0.86900
O902        O  0.28282337  0.16506016  0.77480616    -0.88400
O903        O  0.23321387  0.17201498  0.78766418    -0.88500
O904        O  0.24416846  0.14083857  0.80580447    -0.75500
Mg905      Mg  0.21339932  0.16591947  0.70819000     1.58000
O906        O  0.17120834  0.19307186  0.74913579    -0.82900
H907        H  0.28177401  0.14387938  0.69221117    -0.06600
O908        O  0.27089935  0.11507894  0.76519947    -0.88200
H909        H  0.25576011  0.09144435  0.78507677    -0.06500
H910        H  0.30448898  0.18619232  0.75849740    -0.06600
C911        C  0.25604586  0.10023640  0.76870483     0.86900
C912        C  0.26544228  0.14325611  0.70109826     0.87500
C913        C  0.29650072  0.16941746  0.75904951     0.87500
H914        H  0.21308598  0.15595803  0.81046617    -0.06600
O915        O  0.19412934  0.14510957  0.76026189    -0.75700
Mg916      Mg  0.28159564  0.13399664  0.79524804     1.58000
H917        H  0.19006755  0.11415154  0.74478799    -0.06600
C918        C  0.27297328  0.06674240  0.71206971     0.92500
O919        O  0.32523645  0.10856801  0.75370954    -0.82900
C920        C  0.33269122  0.11457659  0.77337687     0.92600
O921        O  0.20259554  0.14647830  0.67591742    -0.82900
Mg922      Mg  0.20367216  0.18258743  0.76843233     1.58200
O923        O  0.28689102  0.07904593  0.72382541    -0.81200
O924        O  0.24289446  0.22632859  0.79705422    -0.82900
O925        O  0.27335078  0.66833456  0.21830070    -0.88500
C926        C  0.27040645  0.60230291  0.24059373     0.87500
Mg927      Mg  0.27959998  0.69697539  0.24056829     1.58100
O928        O  0.21656140  0.62700487  0.22937603    -0.88200
O929        O  0.24604011  0.65765691  0.19476473    -0.75500
C930        C  0.21378013  0.67813163  0.33348417     0.92600
O931        O  0.30194164  0.64467405  0.25887589    -0.75400
O932        O  0.23373031  0.68605893  0.32900426    -0.82900
Mg933      Mg  0.29663906  0.63931356  0.22024731     1.58000
C934        C  0.16208391  0.62004557  0.27494018     0.92500
O935        O  0.29508412  0.63168497  0.18120634    -0.81100
H936        H  0.19541707  0.64325684  0.20778674    -0.06500
C937        C  0.23626660  0.62731661  0.29646053     0.87500
O938        O  0.24117489  0.70401949  0.24490890    -0.75600
O939        O  0.26744871  0.61755460  0.22605990    -0.88400
O940        O  0.17669283  0.60741508  0.26437353    -0.81200
C941        C  0.21955081  0.56623689  0.21656150     0.92600
C942        C  0.28338001  0.62100365  0.16602839     0.92500
Mg943      Mg  0.19986794  0.66110438  0.27900103     1.58000
O944        O  0.20157796  0.66808607  0.31825571    -0.81100
O945        O  0.19490284  0.65602041  0.24018850    -0.75400
O946        O  0.23121824  0.58028540  0.20426975    -0.81200
O947        O  0.32878909  0.66179528  0.21527314    -0.82900
O948        O  0.26498272  0.71919180  0.29494988    -0.81200
C949        C  0.20189386  0.64181859  0.22511294     0.86900
O950        O  0.22905484  0.68240065  0.27334994    -0.88400
O951        O  0.22269799  0.63182113  0.28076632    -0.88500
O952        O  0.25077779  0.64189508  0.30370273    -0.75500
Mg953      Mg  0.23958858  0.61931581  0.20139528     1.58000
O954        O  0.21050198  0.57206655  0.23564708    -0.82900
H955        H  0.26003655  0.68958766  0.19486046    -0.06600
O956        O  0.27981775  0.67336810  0.26942728    -0.88200
H957        H  0.30158810  0.65800287  0.29103598    -0.06500
H958        H  0.20879223  0.70529109  0.25775989    -0.06600
C959        C  0.29488587  0.65900379  0.27376462     0.86900
C960        C  0.26015901  0.67251074  0.20221598     0.87500
C961        C  0.22572294  0.69774236  0.25901779     0.87500
H962        H  0.23644175  0.61012579  0.30354905    -0.06600
O963        O  0.25457021  0.59609675  0.25434441    -0.75700
Mg964      Mg  0.25706744  0.68031045  0.29758863     1.58000
H965        H  0.28725729  0.59465282  0.24224666    -0.06600
C966        C  0.33362282  0.68150743  0.22351938     0.92500
O967        O  0.28479440  0.72876740  0.26337610    -0.82900
C968        C  0.27596864  0.73386824  0.28279541     0.92600
O969        O  0.26345200  0.61287265  0.17032421    -0.82900
Mg970      Mg  0.21604083  0.60357750  0.25831844     1.58200
O971        O  0.31869427  0.69383918  0.23394593    -0.81200
O972        O  0.16749262  0.63939765  0.28358119    -0.82900
O973        O  0.77856660  0.17302984  0.23246704    -0.88500
C974        C  0.76031169  0.17249762  0.29974920     0.87500
Mg975      Mg  0.75452373  0.17629742  0.20483702     1.58100
O976        O  0.77418085  0.11813301  0.27789562    -0.88200
O977        O  0.80444691  0.14784509  0.24317739    -0.75500
C978        C  0.66940914  0.10276015  0.22974751     0.92600
O979        O  0.73705138  0.19904608  0.25715221    -0.75400
O980        O  0.67186347  0.12262238  0.22075440    -0.82900
Mg981      Mg  0.77639646  0.19748380  0.26041676     1.58000
C982        C  0.73347816  0.06133369  0.29113932     0.92500
O983        O  0.81609819  0.19951453  0.26525317    -0.81100
H984        H  0.79680337  0.09737635  0.26246847    -0.06500
C985        C  0.70524422  0.13225393  0.27916976     0.87500
O986        O  0.75329373  0.13720624  0.19973007    -0.75600
O987        O  0.77426457  0.16944127  0.28396422    -0.88400
O988        O  0.74312258  0.07765303  0.30218922    -0.81200
C989        C  0.79045658  0.12544619  0.33709120     0.92600
C990        C  0.83270662  0.18921878  0.27530684     0.92500
Mg991      Mg  0.72497838  0.09548859  0.24727866     1.58000
O992        O  0.68551637  0.09296252  0.24104528    -0.81100
O993        O  0.76414226  0.09374829  0.25102490    -0.75400
O994        O  0.80100645  0.13688295  0.32151091    -0.81200
O995        O  0.77717532  0.22851928  0.23654496    -0.82900
O996        O  0.70096235  0.15609628  0.18553352    -0.81200
C997        C  0.77907738  0.10272502  0.26409876     0.86900
O998        O  0.72739362  0.12368546  0.22362059    -0.88400
O999        O  0.72224581  0.12015106  0.27508115    -0.88500
O1000       O  0.69600126  0.14470679  0.26382020    -0.75500
Mg1001     Mg  0.80071394  0.14333718  0.28212351     1.58000
O1002       O  0.77133911  0.11541632  0.33335919    -0.82900
H1003       H  0.80156034  0.15982501  0.21059520    -0.06600
O1004       O  0.72673599  0.17513809  0.22984611    -0.88200
H1005       H  0.70422854  0.19538971  0.24612579    -0.06500
H1006       H  0.74375027  0.10369071  0.20096131    -0.06600
C1007       C  0.72196381  0.19020020  0.24410515     0.86900
C1008       C  0.79522807  0.16057580  0.22805811     0.87500
C1009       C  0.74122114  0.12082388  0.20769861     0.87500
H1010       H  0.69854467  0.13286862  0.29650238    -0.06600
O1011       O  0.74784202  0.15634504  0.30754976    -0.75700
Mg1012     Mg  0.70057852  0.14948001  0.22490818     1.58000
H1013       H  0.75790341  0.18968775  0.30638800    -0.06600
C1014       C  0.76739312  0.23207776  0.21734588     0.92500
O1015       O  0.73000923  0.17854767  0.17412618    -0.82900
C1016       C  0.71126735  0.16797141  0.17012973     0.92600
O1017       O  0.83019792  0.16957755  0.28478786    -0.82900
Mg1018     Mg  0.74644712  0.11731023  0.30283253     1.58200
O1019       O  0.75764367  0.21601060  0.20601812    -0.81200
O1020       O  0.72390469  0.06449288  0.27171624    -0.82900
C1021       C  0.21624660  0.09888053  0.39831111     0.80100
N1022       N  0.20933898  0.07659102  0.39664590    -0.78200
C1023       C  0.20641503  0.06636691  0.37594125     0.82500
N1024       N  0.21144074  0.07839200  0.35664627    -0.78200
C1025       C  0.21791474  0.10075901  0.35766168     0.82600
N1026       N  0.21986353  0.11131657  0.37858836    -0.79900
C1027       C  0.19826260  0.12579876  0.60404066     0.80100
N1028       N  0.17785014  0.11458924  0.60397698    -0.78200
C1029       C  0.16867235  0.10584966  0.62352357     0.82500
N1030       N  0.17976940  0.10922168  0.64372747    -0.78200
C1031       C  0.19991725  0.12103094  0.64443005     0.82600
N1032       N  0.20945214  0.12908690  0.62442696    -0.79900
O1033       O  0.27783020  0.11911439  0.23372239    -0.88500
C1034       C  0.27335783  0.13958101  0.30048193     0.87500
Mg1035     Mg  0.28390255  0.14189787  0.20565611     1.58100
O1036       O  0.21973976  0.12819438  0.27553912    -0.88200
O1037       O  0.25000589  0.09557379  0.24350916    -0.75500
C1038       C  0.21528598  0.23297571  0.22632799     0.92600
O1039       O  0.30503721  0.16002418  0.25841949    -0.75400
O1040       O  0.23516608  0.22876662  0.21802561    -0.82900
Mg1041     Mg  0.30049587  0.12113640  0.26302290     1.58000
C1042       C  0.16426597  0.17220662  0.28373030     0.92500
O1043       O  0.29944983  0.08196239  0.26937989    -0.81100
H1044       H  0.19849555  0.10649052  0.25960498    -0.06500
C1045       C  0.23877053  0.19526775  0.27659508     0.87500
O1046       O  0.24519189  0.14551052  0.19898968    -0.75600
O1047       O  0.27075849  0.12576406  0.28455050    -0.88400
O1048       O  0.17914992  0.16173740  0.29608966    -0.81200
C1049       C  0.22265833  0.11251189  0.33562504     0.92600
C1050       C  0.28765314  0.06609367  0.27898539     0.92500
Mg1051     Mg  0.20228229  0.17799046  0.24275022     1.58000
O1052       O  0.20333903  0.21751962  0.23647280    -0.81100
O1053       O  0.19756202  0.13904503  0.24711445    -0.75400
O1054       O  0.23465725  0.10155709  0.32079858    -0.81200
O1055       O  0.33320038  0.11735819  0.24093166    -0.82900
O1056       O  0.26743180  0.19600307  0.18374800    -0.81200
C1057       C  0.20485525  0.12389225  0.26104291     0.86900
O1058       O  0.23186227  0.17298452  0.22118416    -0.88400
O1059       O  0.22502480  0.17963331  0.27220111    -0.88500
O1060       O  0.25296615  0.20290338  0.26177249    -0.75500
Mg1061     Mg  0.24332931  0.10056950  0.28191983     1.58000
O1062       O  0.21320526  0.13178744  0.33102704    -0.82900
H1063       H  0.26440783  0.09645247  0.21178108    -0.06600
O1064       O  0.28314977  0.17038891  0.22957227    -0.88200
H1065       H  0.30415106  0.19237757  0.24543880    -0.06500
H1066       H  0.21222538  0.15678624  0.19823822    -0.06600
C1067       C  0.29788256  0.17492845  0.24416012     0.86900
C1068       C  0.26447571  0.10326257  0.22905157     0.87500
C1069       C  0.22910464  0.15870219  0.20570066     0.87500
H1070       H  0.23931866  0.20205371  0.29386674    -0.06600
O1071       O  0.25718631  0.15256752  0.30739239    -0.75700
Mg1072     Mg  0.25938993  0.19787171  0.22310083     1.58000
H1073       H  0.29014445  0.14125089  0.30820714    -0.06600
C1074       C  0.33844161  0.12564164  0.22130521     0.92500
O1075       O  0.28856144  0.16523343  0.17433354    -0.82900
C1076       C  0.27905257  0.18428577  0.16913080     0.92600
O1077       O  0.26755198  0.06970911  0.28700888    -0.82900
Mg1078     Mg  0.21859964  0.15613047  0.30003725     1.58200
O1079       O  0.32360057  0.13590296  0.20869524    -0.81200
O1080       O  0.16953054  0.18154454  0.26460060    -0.82900
C1081       C  0.21914131  0.10895179  0.42176480    -0.03300
C1082       C  0.21757832  0.13272506  0.42589547    -0.05900
C1083       C  0.21796444  0.14131412  0.44852395    -0.21000
C1084       C  0.22050341  0.12643128  0.46747078     0.24700
C1085       C  0.22282330  0.10275956  0.46320065    -0.18600
C1086       C  0.22208533  0.09419074  0.44075694    -0.08500
C1087       C  0.21822447  0.13546337  0.49148314    -0.18800
C1088       C  0.22797896  0.12518895  0.50993661    -0.23600
C1089       C  0.22235426  0.13067111  0.53448627     0.26800
C1090       C  0.23712354  0.12285316  0.55198409    -0.20400
C1091       C  0.23038204  0.12350764  0.57519953    -0.10000
C1092       C  0.20851751  0.13163073  0.58136434    -0.10600
C1093       C  0.19433109  0.14077052  0.56407263    -0.03500
C1094       C  0.20118428  0.14047283  0.54095608    -0.18600
H1095       H  0.21517411  0.14457520  0.41174851     0.10500
H1096       H  0.21588680  0.15961232  0.45127095     0.10500
H1097       H  0.22417111  0.09061861  0.47723152     0.10200
H1098       H  0.22338804  0.07577463  0.43834121     0.11300
H1099       H  0.20771970  0.15068664  0.49394867     0.11400
H1100       H  0.24012076  0.11130284  0.50702552     0.13300
H1101       H  0.25346491  0.11507472  0.54757489     0.09800
H1102       H  0.24146426  0.11592722  0.58805872     0.11900
H1103       H  0.17723984  0.14686114  0.56832020     0.08500
H1104       H  0.18908322  0.14633270  0.52816245     0.11300
C1105       C  0.21731949  0.47928477  0.77994924    -0.03300
C1106       C  0.21453756  0.46938738  0.75819577    -0.05900
C1107       C  0.21876352  0.44584635  0.75492803    -0.21000
C1108       C  0.22618746  0.43186383  0.77322572     0.24700
C1109       C  0.23053211  0.44227667  0.79458950    -0.18600
C1110       C  0.22591941  0.46568115  0.79792276    -0.08500
C1111       C  0.22552478  0.40632726  0.77052386    -0.18800
C1112       C  0.23649233  0.39125936  0.78438322    -0.23600
C1113       C  0.23093213  0.36618465  0.78472500     0.26800
C1114       C  0.24769155  0.34992491  0.79110047    -0.20400
C1115       C  0.24188366  0.32658834  0.79400647    -0.10000
C1116       C  0.21904835  0.31928628  0.79124026    -0.10600
C1117       C  0.20244816  0.33550812  0.78453787    -0.03500
C1118       C  0.20829958  0.35856954  0.78116641    -0.18600
H1119       H  0.20743533  0.47941794  0.74422834     0.10500
H1120       H  0.21505176  0.43828123  0.73835746     0.10500
H1121       H  0.23576960  0.43214143  0.80925448     0.10200
H1122       H  0.22780134  0.47290991  0.81495653     0.11300
H1123       H  0.21441166  0.39962251  0.75715426     0.11400
H1124       H  0.24927104  0.39742998  0.79643389     0.13300
H1125       H  0.26518036  0.35538578  0.79431247     0.09800
H1126       H  0.25491101  0.31454786  0.79962038     0.11900
H1127       H  0.18464869  0.33043260  0.78257528     0.08500
H1128       H  0.19476351  0.37061675  0.77696477     0.11300
C1129       C  0.57694250  0.68017772  0.77059202    -0.03300
C1130       C  0.56192967  0.69210503  0.75600150    -0.05900
C1131       C  0.53877148  0.68589299  0.75441274    -0.21000
C1132       C  0.52972024  0.66788577  0.76776463     0.24700
C1133       C  0.54505584  0.65506188  0.78155812    -0.18600
C1134       C  0.56847610  0.66117279  0.78291090    -0.08500
C1135       C  0.50414117  0.66436389  0.76749523    -0.18800
C1136       C  0.49209655  0.65297403  0.78383011    -0.23600
C1137       C  0.46642980  0.65424781  0.78625550     0.26800
C1138       C  0.45681531  0.65083030  0.80816030    -0.20400
C1139       C  0.43351501  0.65521625  0.81230228    -0.10000
C1140       C  0.41898799  0.66251959  0.79451818    -0.10600
C1141       C  0.42800932  0.66417653  0.77216897    -0.03500
C1142       C  0.45153579  0.66013033  0.76804227    -0.18600
H1143       H  0.56796346  0.70696140  0.74649188     0.10500
H1144       H  0.52761559  0.69602238  0.74349956     0.10500
H1145       H  0.53905186  0.64071276  0.79174935     0.10200
H1146       H  0.57963409  0.65189244  0.79453677     0.11300
H1147       H  0.49468884  0.67387165  0.75456311     0.11400
H1148       H  0.50135152  0.64469394  0.79769598     0.13300
H1149       H  0.46765827  0.64608519  0.82249549     0.09800
H1150       H  0.42703708  0.65401574  0.82973260     0.11900
H1151       H  0.41723767  0.67007917  0.75821763     0.08500
H1152       H  0.45802941  0.66228247  0.75075020     0.11300
C1153       C  0.78863760  0.67282684  0.57607754    -0.03300
C1154       C  0.76562609  0.67799403  0.57095652    -0.05900
C1155       C  0.75827472  0.67924382  0.54794219    -0.21000
C1156       C  0.77360062  0.67481017  0.52966667     0.24700
C1157       C  0.79628330  0.66853623  0.53495393    -0.18600
C1158       C  0.80365975  0.66762237  0.55776454    -0.08500
C1159       C  0.76661236  0.67960678  0.50542094    -0.18800
C1160       C  0.77624971  0.66917087  0.48697382    -0.23600
C1161       C  0.77317361  0.67727659  0.46279295     0.26800
C1162       C  0.77614459  0.66185372  0.44436985    -0.20400
C1163       C  0.77643273  0.66972307  0.42148940    -0.10000
C1164       C  0.77433884  0.69330097  0.41663624    -0.10600
C1165       C  0.77071616  0.70856832  0.43508200    -0.03500
C1166       C  0.77006576  0.70069995  0.45778257    -0.18600
H1167       H  0.75370130  0.68233269  0.58459520     0.10500
H1168       H  0.74074676  0.68435387  0.54436961     0.10500
H1169       H  0.80879161  0.66558622  0.52147630     0.10200
H1170       H  0.82153803  0.66362858  0.56103740     0.11300
H1171       H  0.75368281  0.69279652  0.50272464     0.11400
H1172       H  0.78752067  0.65453297  0.48964911     0.13300
H1173       H  0.77882291  0.64373340  0.44773605     0.09800
H1174       H  0.77938519  0.65754179  0.40774106     0.11900
H1175       H  0.76899655  0.72686329  0.43203020     0.08500
H1176       H  0.76832850  0.71321323  0.47142188     0.11300
C1177       C  0.77442674  0.47767861  0.78273112    -0.03300
C1178       C  0.78222996  0.47284661  0.76039303    -0.05900
C1179       C  0.78245589  0.45003692  0.75222262    -0.21000
C1180       C  0.77444350  0.43173843  0.76601118     0.24700
C1181       C  0.76566566  0.43691329  0.78793360    -0.18600
C1182       C  0.76571864  0.45949059  0.79612742    -0.08500
C1183       C  0.77800838  0.40734392  0.75853616    -0.18800
C1184       C  0.76568316  0.38942330  0.76695229    -0.23600
C1185       C  0.77216866  0.36460763  0.76440942     0.26800
C1186       C  0.75619350  0.34749112  0.77077500    -0.20400
C1187       C  0.76286791  0.32433542  0.77288257    -0.10000
C1188       C  0.78579320  0.31790451  0.76899546    -0.10600
C1189       C  0.80138704  0.33472343  0.76125371    -0.03500
C1190       C  0.79470622  0.35772743  0.75889952    -0.18600
H1191       H  0.78944369  0.48640698  0.74984387     0.10500
H1192       H  0.78961201  0.44657041  0.73538121     0.10500
H1193       H  0.75998995  0.42344134  0.79944848     0.10200
H1194       H  0.75981011  0.46261704  0.81351431     0.11300
H1195       H  0.79185843  0.40415334  0.74643933     0.11400
H1196       H  0.75058471  0.39302302  0.77734060     0.13300
H1197       H  0.73873681  0.35222213  0.77523709     0.09800
H1198       H  0.75054089  0.31182589  0.77910309     0.11900
H1199       H  0.81920095  0.33024794  0.75813039     0.08500
H1200       H  0.80773010  0.37015406  0.75426327     0.11300
C1201       C  0.21420819  0.67728349  0.41959862    -0.03300
C1202       C  0.23562436  0.68664760  0.42544308    -0.05900
C1203       C  0.24274873  0.68710562  0.44852838    -0.21000
C1204       C  0.22884023  0.67783939  0.46613705     0.24700
C1205       C  0.20805183  0.66722210  0.45992429    -0.18600
C1206       C  0.20084686  0.66705919  0.43701257    -0.08500
C1207       C  0.23490620  0.68214480  0.49076615    -0.18800
C1208       C  0.22624138  0.67005597  0.50872768    -0.23600
C1209       C  0.22851548  0.67719478  0.53334799     0.26800
C1210       C  0.22482266  0.66095909  0.55098825    -0.20400
C1211       C  0.22362423  0.66776838  0.57416787    -0.10000
C1212       C  0.22562858  0.69107122  0.58011426    -0.10600
C1213       C  0.23013219  0.70713924  0.56256822    -0.03500
C1214       C  0.23163769  0.70034537  0.53956090    -0.18600
H1215       H  0.24607689  0.69500291  0.41246877     0.10500
H1216       H  0.25875158  0.69558164  0.45276708     0.10500
H1217       H  0.19651152  0.66033978  0.47280048     0.10200
H1218       H  0.18414089  0.65990457  0.43301978     0.11300
H1219       H  0.24643663  0.69640011  0.49414093     0.11400
H1220       H  0.21645520  0.65454392  0.50539122     0.13300
H1221       H  0.22209136  0.64304176  0.54674624     0.09800
H1222       H  0.21975224  0.65505500  0.58722278     0.11900
H1223       H  0.23157763  0.72526706  0.56657919     0.08500
H1224       H  0.23390761  0.71354662  0.52665525     0.11300
C1225       C  0.77123723  0.11396384  0.58231225    -0.03300
C1226       C  0.78113222  0.13530745  0.57689679    -0.05900
C1227       C  0.78250666  0.14266232  0.55387531    -0.21000
C1228       C  0.77368948  0.12903882  0.53591367     0.24700
C1229       C  0.76240566  0.10843933  0.54168366    -0.18600
C1230       C  0.76128950  0.10102641  0.56452490    -0.08500
C1231       C  0.77938623  0.13493212  0.51149096    -0.18800
C1232       C  0.76817448  0.12635556  0.49302080    -0.23600
C1233       C  0.77714378  0.12795677  0.46893505     0.26800
C1234       C  0.76201978  0.12580504  0.45019358    -0.20400
C1235       C  0.77041293  0.12458144  0.42749737    -0.10000
C1236       C  0.79418738  0.12496104  0.42313821    -0.10600
C1237       C  0.80919461  0.12755088  0.44190851    -0.03500
C1238       C  0.80084948  0.12905615  0.46440135    -0.18600
H1239       H  0.78929339  0.14544068  0.59016040     0.10500
H1240       H  0.79146185  0.15852550  0.54997630     0.10500
H1241       H  0.75582045  0.09711814  0.52854117     0.10200
H1242       H  0.75374310  0.08438141  0.56817089     0.11300
H1243       H  0.79416240  0.14599427  0.50869729     0.11400
H1244       H  0.75216713  0.11711208  0.49554543     0.13300
H1245       H  0.74367501  0.12460939  0.45316736     0.09800
H1246       H  0.75838941  0.12242615  0.41351062     0.11900
H1247       H  0.82762767  0.12791875  0.43929026     0.08500
H1248       H  0.81315992  0.13000145  0.47825194     0.11300
C1249       C  0.78184731  0.47639794  0.22871996    -0.03300
C1250       C  0.79583681  0.45817582  0.23622330    -0.05900
C1251       C  0.78723747  0.43582057  0.23803969    -0.21000
C1252       C  0.76429083  0.43095353  0.23229028     0.24700
C1253       C  0.75000157  0.44935922  0.22561295    -0.18600
C1254       C  0.75861909  0.47192795  0.22405255    -0.08500
C1255       C  0.75582710  0.40674442  0.23017598    -0.18800
C1256       C  0.76604486  0.38845932  0.24035470    -0.23600
C1257       C  0.76194136  0.36390939  0.23380815     0.26800
C1258       C  0.77114626  0.34622083  0.24758944    -0.20400
C1259       C  0.77147917  0.32330427  0.23991375    -0.10000
C1260       C  0.76289244  0.31774414  0.21813074    -0.10600
C1261       C  0.75251813  0.33511432  0.20497035    -0.03500
C1262       C  0.75193491  0.35785940  0.21268344    -0.18600
H1263       H  0.81384744  0.46108179  0.23987909     0.10500
H1264       H  0.79910433  0.42228917  0.24264395     0.10500
H1265       H  0.73232858  0.44613090  0.22080640     0.10200
H1266       H  0.74752123  0.48556000  0.21794193     0.11300
H1267       H  0.74132128  0.40398411  0.21887111     0.11400
H1268       H  0.77910110  0.39148536  0.25326071     0.13300
H1269       H  0.77912566  0.35031271  0.26386287     0.09800
H1270       H  0.77986141  0.31029984  0.25025576     0.11900
H1271       H  0.74585666  0.33125911  0.18804997     0.08500
H1272       H  0.74500120  0.37071626  0.20123065     0.11300
C1273       C  0.58067197  0.67007346  0.20715007    -0.03300
C1274       C  0.57487141  0.68089396  0.22789255    -0.05900
C1275       C  0.55184176  0.68171542  0.23525983    -0.21000
C1276       C  0.53419734  0.67142012  0.22228659     0.24700
C1277       C  0.54031930  0.65973839  0.20200883    -0.18600
C1278       C  0.56320637  0.65915950  0.19456975    -0.08500
C1279       C  0.50963437  0.67528641  0.22911954    -0.18800
C1280       C  0.49152355  0.66330676  0.22071185    -0.23600
C1281       C  0.46680764  0.66976217  0.22435570     0.26800
C1282       C  0.44933509  0.65424673  0.21789285    -0.20400
C1283       C  0.42606470  0.66093100  0.21787486    -0.10000
C1284       C  0.41987474  0.68339749  0.22409959    -0.10600
C1285       C  0.43717532  0.69844359  0.23170463    -0.03500
C1286       C  0.46024983  0.69181329  0.23182123    -0.18600
H1287       H  0.58788283  0.68984086  0.23768629     0.10500
H1288       H  0.54769494  0.69107948  0.25080175     0.10500
H1289       H  0.52747067  0.65202815  0.19109922     0.10200
H1290       H  0.56717015  0.65086953  0.17837627     0.11300
H1291       H  0.50655203  0.68902371  0.24130550     0.11400
H1292       H  0.49473346  0.64836759  0.21005362     0.13300
H1293       H  0.45378944  0.63717771  0.21193524     0.09800
H1294       H  0.41317931  0.64907489  0.21162625     0.11900
H1295       H  0.43293800  0.71592522  0.23655391     0.08500
H1296       H  0.47281819  0.70460489  0.23655355     0.11300
C1297       C  0.41822477  0.11014919  0.76386204    -0.03300
C1298       C  0.42858455  0.09369554  0.74956975    -0.05900
C1299       C  0.45246654  0.09372106  0.74601859    -0.21000
C1300       C  0.46658971  0.11013012  0.75674585     0.24700
C1301       C  0.45593647  0.12760752  0.76973733    -0.18600
C1302       C  0.43204650  0.12751571  0.77329576    -0.08500
C1303       C  0.49209405  0.10635336  0.75692202    -0.18800
C1304       C  0.50778987  0.12249108  0.76267815    -0.23600
C1305       C  0.53257838  0.11726300  0.76726776     0.26800
C1306       C  0.54906535  0.13489773  0.76542536    -0.20400
C1307       C  0.57182976  0.13143042  0.77270895    -0.10000
C1308       C  0.57843039  0.11041581  0.78259438    -0.10600
C1309       C  0.56218161  0.09254017  0.78375240    -0.03500
C1310       C  0.53961908  0.09582053  0.77603313    -0.18600
H1311       H  0.41847893  0.07963574  0.74277238     0.10500
H1312       H  0.46008877  0.07994971  0.73605985     0.10500
H1313       H  0.46605197  0.14027678  0.77876474     0.10200
H1314       H  0.42462582  0.13983713  0.78513020     0.11300
H1315       H  0.49807300  0.08911987  0.75293796     0.11400
H1316       H  0.50233232  0.14021446  0.76470338     0.13300
H1317       H  0.54413050  0.15165303  0.75896851     0.09800
H1318       H  0.58387423  0.14560229  0.77188233     0.11900
H1319       H  0.56675131  0.07618227  0.79140240     0.08500
H1320       H  0.52744035  0.08193727  0.77826059     0.11300
C1321       C  0.58461042  0.08620195  0.22990193    -0.03300
C1322       C  0.56909812  0.06796277  0.23340595    -0.05900
C1323       C  0.54563851  0.07204981  0.23692166    -0.21000
C1324       C  0.53666917  0.09448224  0.23666724     0.24700
C1325       C  0.55228489  0.11293399  0.23402694    -0.18600
C1326       C  0.57601058  0.10880869  0.23081266    -0.08500
C1327       C  0.51101008  0.09730139  0.23879377    -0.18800
C1328       C  0.49906502  0.11636815  0.23273755    -0.23600
C1329       C  0.47318793  0.11795043  0.23174937     0.26800
C1330       C  0.46327289  0.13678182  0.22023039    -0.20400
C1331       C  0.43949090  0.13791225  0.21635747    -0.10000
C1332       C  0.42477736  0.12046146  0.22425413    -0.10600
C1333       C  0.43434522  0.10222891  0.23687227    -0.03500
C1334       C  0.45820812  0.10102377  0.24075240    -0.18600
H1335       H  0.57508149  0.05032523  0.23311677     0.10500
H1336       H  0.53430486  0.05743906  0.23919262     0.10500
H1337       H  0.54634227  0.13054029  0.23429106     0.10200
H1338       H  0.58747712  0.12324923  0.22823768     0.11300
H1339       H  0.50155516  0.08209982  0.24395938     0.11400
H1340       H  0.50855372  0.13114839  0.22645415     0.13300
H1341       H  0.47411529  0.15016064  0.21310172     0.09800
H1342       H  0.43274304  0.15173459  0.20586652     0.11900
H1343       H  0.42352692  0.08813218  0.24248306     0.08500
H1344       H  0.46471458  0.08639299  0.25013964     0.11300
C1345       C  0.21375392  0.31885899  0.23090823    -0.03300
C1346       C  0.20584640  0.32878787  0.25141839    -0.05900
C1347       C  0.20794856  0.35251505  0.25517664    -0.21000
C1348       C  0.21804015  0.36690882  0.23854464     0.24700
C1349       C  0.22700744  0.35672431  0.21844627    -0.18600
C1350       C  0.22473246  0.33297379  0.21464849    -0.08500
C1351       C  0.21621658  0.39244099  0.24143060    -0.18800
C1352       C  0.22980406  0.40784436  0.23052915    -0.23600
C1353       C  0.22575173  0.43328620  0.23067066     0.26800
C1354       C  0.24392771  0.44813665  0.22474574    -0.20400
C1355       C  0.24000418  0.47164160  0.22086111    -0.10000
C1356       C  0.21774719  0.48075114  0.22255469    -0.10600
C1357       C  0.19973371  0.46624119  0.22952619    -0.03500
C1358       C  0.20367636  0.44281339  0.23374931    -0.18600
H1359       H  0.19655324  0.31843397  0.26382979     0.10500
H1360       H  0.20064662  0.35981727  0.27067734     0.10500
H1361       H  0.23431261  0.36717907  0.20489268     0.10200
H1362       H  0.23010347  0.32588338  0.19829123     0.11300
H1363       H  0.20285053  0.39870126  0.25287535     0.11400
H1364       H  0.24442697  0.40164977  0.22070301     0.13300
H1365       H  0.26104562  0.44131944  0.22202947     0.09800
H1366       H  0.25402393  0.48231762  0.21479831     0.11900
H1367       H  0.18229886  0.47275075  0.23025567     0.08500
H1368       H  0.18907120  0.43201126  0.23774387     0.11300
C1369       C  0.28751620  0.18127305  0.08330313    -0.03300
C1370       C  0.26806750  0.16829399  0.07726978    -0.05900
C1371       C  0.26443075  0.16171602  0.05424019    -0.21000
C1372       C  0.28043726  0.16742433  0.03691881     0.24700
C1373       C  0.30037296  0.17947068  0.04329924    -0.18600
C1374       C  0.30377956  0.18633757  0.06606360    -0.08500
C1375       C  0.27527559  0.16276414  0.01209689    -0.18800
C1376       C  0.29201371  0.15866177  0.99644280    -0.23600
C1377       C  0.28901406  0.15771643  0.97086330     0.26800
C1378       C  0.30709048  0.14854939  0.95769192    -0.20400
C1379       C  0.30791207  0.15162549  0.93385755    -0.10000
C1380       C  0.29066514  0.16394496  0.92236539    -0.10600
C1381       C  0.27159868  0.17166639  0.93514547    -0.03500
C1382       C  0.27070597  0.16851635  0.95919581    -0.18600
H1383       H  0.25508621  0.16436573  0.09005186     0.10500
H1384       H  0.24883365  0.15259506  0.04984724     0.10500
H1385       H  0.31286151  0.18472004  0.03051236     0.10200
H1386       H  0.31891054  0.19640279  0.07005409     0.11300
H1387       H  0.25744885  0.16311944  0.00669230     0.11400
H1388       H  0.30944379  0.15641116  0.00269646     0.13300
H1389       H  0.32147943  0.14023197  0.96605281     0.09800
H1390       H  0.32308530  0.14600992  0.92459156     0.11900
H1391       H  0.25842860  0.18187660  0.92688335     0.08500
H1392       H  0.25662739  0.17613588  0.96868519     0.11300
C1393       C  0.91838899  0.19453129  0.26789570    -0.03300
C1394       C  0.92342704  0.17104472  0.27038690    -0.05900
C1395       C  0.94625388  0.16316833  0.26871477    -0.21000
C1396       C  0.96449469  0.17846705  0.26407342     0.24700
C1397       C  0.95917245  0.20176720  0.26035073    -0.18600
C1398       C  0.93649470  0.20963659  0.26228082    -0.08500
C1399       C  0.98883676  0.17022758  0.26617796    -0.18800
C1400       C  0.00741769  0.18151618  0.25767830    -0.23600
C1401       C  0.03178126  0.17625533  0.26430298     0.26800
C1402       C  0.05014869  0.18502594  0.25103089    -0.20400
C1403       C  0.07301838  0.18369450  0.25888431    -0.10000
C1404       C  0.07788736  0.17388390  0.28038631    -0.10600
C1405       C  0.05968735  0.16414410  0.29303497    -0.03500
C1406       C  0.03703283  0.16522433  0.28514998    -0.18600
H1407       H  0.90996093  0.15898924  0.27488136     0.10500
H1408       H  0.94977864  0.14515196  0.27185523     0.10500
H1409       H  0.97255295  0.21429489  0.25723288     0.10200
H1410       H  0.93323910  0.22785725  0.26018354     0.11300
H1411       H  0.99145186  0.15457185  0.27597559     0.11400
H1412       H  0.00480491  0.19592757  0.24612644     0.13300
H1413       H  0.04668989  0.19379368  0.23498528     0.09800
H1414       H  0.08659928  0.19165961  0.24890999     0.11900
H1415       H  0.06287463  0.15660041  0.30974906     0.08500
H1416       H  0.02362468  0.15868951  0.29626894     0.11300
C1417       C  0.28872765  0.98018026  0.27585868    -0.03300
C1418       C  0.26654699  0.97483262  0.28378869    -0.05900
C1419       C  0.25849738  0.95201876  0.28311502    -0.21000
C1420       C  0.27222899  0.93417039  0.27409766     0.24700
C1421       C  0.29393191  0.93992633  0.26501797    -0.18600
C1422       C  0.30203819  0.96256275  0.26598439    -0.08500
C1423       C  0.26470463  0.90965883  0.27699223    -0.18800
C1424       C  0.27397591  0.89163840  0.26546156    -0.23600
C1425       C  0.27029144  0.86685666  0.27166565     0.26800
C1426       C  0.27743361  0.84955612  0.25624263    -0.20400
C1427       C  0.27795481  0.82629104  0.26291695    -0.10000
C1428       C  0.27165677  0.81991358  0.28531631    -0.10600
C1429       C  0.26328864  0.83698637  0.30026890    -0.03500
C1430       C  0.26254653  0.86009595  0.29358455    -0.18600
H1431       H  0.25599545  0.98797787  0.29171111     0.10500
H1432       H  0.24178964  0.94816078  0.29041563     0.10500
H1433       H  0.30537249  0.92688585  0.25834616     0.10200
H1434       H  0.31922126  0.96616707  0.25973033     0.11300
H1435       H  0.25152471  0.90644935  0.28981050     0.11400
H1436       H  0.28562833  0.89500902  0.25127538     0.13300
H1437       H  0.28363687  0.85417273  0.23929373     0.09800
H1438       H  0.28479238  0.81358785  0.25114831     0.11900
H1439       H  0.25841663  0.83257674  0.31770598     0.08500
H1440       H  0.25729159  0.87261787  0.30625465     0.11300
C1441       C  0.28676604  0.61769497  0.07984758    -0.03300
C1442       C  0.26421181  0.61098853  0.07456869    -0.05900
C1443       C  0.25687586  0.61006325  0.05155029    -0.21000
C1444       C  0.27170011  0.61636163  0.03339686     0.24700
C1445       C  0.29388931  0.62413452  0.03889232    -0.18600
C1446       C  0.30130338  0.62467149  0.06174480    -0.08500
C1447       C  0.26466917  0.61215890  0.00900895    -0.18800
C1448       C  0.27361170  0.62355402  0.99073992    -0.23600
C1449       C  0.26982297  0.61676330  0.96620596     0.26800
C1450       C  0.27339984  0.63298482  0.94853699    -0.20400
C1451       C  0.27347102  0.62631865  0.92529100    -0.10000
C1452       C  0.27046751  0.60314593  0.91926317    -0.10600
C1453       C  0.26584723  0.58714563  0.93687107    -0.03500
C1454       C  0.26543624  0.59382758  0.95997885    -0.18600
H1455       H  0.25271948  0.60522738  0.08806255     0.10500
H1456       H  0.23976393  0.60378348  0.04785535     0.10500
H1457       H  0.30606186  0.62860789  0.02552922     0.10200
H1458       H  0.31883581  0.62983960  0.06522124     0.11300
H1459       H  0.25195346  0.59883653  0.00608508     0.11400
H1460       H  0.28467636  0.63826069  0.99377137     0.13300
H1461       H  0.27700736  0.65074339  0.95278261     0.09800
H1462       H  0.27740921  0.63897918  0.91220579     0.11900
H1463       H  0.26361171  0.56910921  0.93281504     0.08500
H1464       H  0.26311229  0.58066715  0.97292620     0.11300
C1465       C  0.72248740  0.18314010  0.92368266    -0.03300
C1466       C  0.71311401  0.16154558  0.92907546    -0.05900
C1467       C  0.71192702  0.15408510  0.95209276    -0.21000
C1468       C  0.72045234  0.16783200  0.97011253     0.24700
C1469       C  0.73094634  0.18886921  0.96439180    -0.18600
C1470       C  0.73187635  0.19637577  0.94156587    -0.08500
C1471       C  0.71569213  0.16126645  0.99461598    -0.18800
C1472       C  0.72727240  0.16989102  0.01286225    -0.23600
C1473       C  0.71989860  0.16726182  0.03745725     0.26800
C1474       C  0.73558263  0.17234260  0.05516243    -0.20400
C1475       C  0.72846643  0.17318392  0.07828936    -0.10000
C1476       C  0.70534476  0.16942435  0.08417266    -0.10600
C1477       C  0.68986959  0.16355439  0.06658590    -0.03500
C1478       C  0.69700431  0.16238658  0.04360708    -0.18600
H1479       H  0.70540107  0.15114052  0.91575430     0.10500
H1480       H  0.70354717  0.13789576  0.95592344     0.10500
H1481       H  0.73723319  0.20033779  0.97754987     0.10200
H1482       H  0.73906389  0.21319168  0.93798439     0.11300
H1483       H  0.70159702  0.14941719  0.99759821     0.11400
H1484       H  0.74262538  0.18002930  0.00977626     0.13300
H1485       H  0.75328862  0.17637420  0.05100995     0.09800
H1486       H  0.74075981  0.17793265  0.09137533     0.11900
H1487       H  0.67192493  0.16050017  0.07054928     0.08500
H1488       H  0.68417732  0.15886053  0.03069317     0.11300
C1489       C  0.28772251  0.81883355  0.72407419    -0.03300
C1490       C  0.26509404  0.82490773  0.71834098    -0.05900
C1491       C  0.25818921  0.84814052  0.71852712    -0.21000
C1492       C  0.27356097  0.86575348  0.72490633     0.24700
C1493       C  0.29582608  0.85938674  0.73183224    -0.18600
C1494       C  0.30280018  0.83630663  0.73124758    -0.08500
C1495       C  0.26690364  0.89049146  0.72145558    -0.18800
C1496       C  0.27711030  0.90851027  0.73212393    -0.23600
C1497       C  0.27340265  0.93328455  0.72572594     0.26800
C1498       C  0.27917533  0.95079720  0.74143639    -0.20400
C1499       C  0.27930801  0.97411266  0.73477268    -0.10000
C1500       C  0.27407848  0.98037898  0.71208239    -0.10600
C1501       C  0.26738808  0.96299596  0.69668704    -0.03500
C1502       C  0.26689750  0.93983242  0.70339471    -0.18600
H1503       H  0.25323706  0.81192661  0.71228350     0.10500
H1504       H  0.24100587  0.85245722  0.71286939     0.10500
H1505       H  0.30842385  0.87226462  0.73635175     0.10200
H1506       H  0.32044565  0.83217777  0.73547155     0.11300
H1507       H  0.25332398  0.89389303  0.70917748     0.11400
H1508       H  0.28919432  0.90509785  0.74587356     0.13300
H1509       H  0.28450128  0.94634368  0.75868597     0.09800
H1510       H  0.28508042  0.98700537  0.74685467     0.11900
H1511       H  0.26367966  0.96725657  0.67895998     0.08500
H1512       H  0.26287893  0.92705026  0.69054360     0.11300
C1513       C  0.07731831  0.19296467  0.73217237    -0.03300
C1514       C  0.07115606  0.16964292  0.73157714    -0.05900
C1515       C  0.04790646  0.16312086  0.73303681    -0.21000
C1516       C  0.03040063  0.17969418  0.73559081     0.24700
C1517       C  0.03681562  0.20291723  0.73757495    -0.18600
C1518       C  0.05992323  0.20942329  0.73576054    -0.08500
C1519       C  0.00579424  0.17268627  0.73286205    -0.18800
C1520       C  0.98760870  0.18517812  0.74034804    -0.23600
C1521       C  0.96337324  0.18058870  0.73308798     0.26800
C1522       C  0.94481473  0.18778722  0.74695763    -0.20400
C1523       C  0.92200595  0.18636137  0.73900524    -0.10000
C1524       C  0.91741604  0.17827529  0.71675595    -0.10600
C1525       C  0.93593054  0.17050153  0.70322322    -0.03500
C1526       C  0.95852716  0.17151855  0.71126746    -0.18600
H1527       H  0.08408854  0.15662005  0.72842298     0.10500
H1528       H  0.04349602  0.14512463  0.73122070     0.10500
H1529       H  0.02398201  0.21630180  0.73901217     0.10200
H1530       H  0.06412477  0.22756798  0.73608716     0.11300
H1531       H  0.00258812  0.15691456  0.72343849     0.11400
H1532       H  0.99050250  0.19976476  0.75158561     0.13300
H1533       H  0.94803227  0.19510991  0.76373722     0.09800
H1534       H  0.90816056  0.19277878  0.74969425     0.11900
H1535       H  0.93298531  0.16430863  0.68593891     0.08500
H1536       H  0.97224968  0.16638108  0.69978065     0.11300
C1537       C  0.73836385  0.97549863  0.29262529    -0.03300
C1538       C  0.73375198  0.97157977  0.26929554    -0.05900
C1539       C  0.73332636  0.94903566  0.26060242    -0.21000
C1540       C  0.73794083  0.93004657  0.27490919     0.24700
C1541       C  0.74397629  0.93420907  0.29789545    -0.18600
C1542       C  0.74415042  0.95659822  0.30658804    -0.08500
C1543       C  0.73316886  0.90627879  0.26645327    -0.18800
C1544       C  0.74174591  0.88701321  0.27624632    -0.23600
C1545       C  0.73256606  0.86347160  0.27173190     0.26800
C1546       C  0.74615337  0.84406014  0.27669491    -0.20400
C1547       C  0.73677582  0.82179880  0.27590040    -0.10000
C1548       C  0.71344334  0.81861124  0.27067104    -0.10600
C1549       C  0.70012759  0.83794925  0.26491122    -0.03500
C1550       C  0.70953289  0.86004975  0.26535338    -0.18600
H1551       H  0.72909478  0.98573468  0.25814306     0.10500
H1552       H  0.72846604  0.94634823  0.24286493     0.10500
H1553       H  0.74715567  0.92019076  0.30968667     0.10200
H1554       H  0.74786206  0.95902676  0.32464526     0.11300
H1555       H  0.72118226  0.90466193  0.25229790     0.11400
H1556       H  0.75535559  0.88847157  0.28886331     0.13300
H1557       H  0.76388137  0.84618736  0.28189204     0.09800
H1558       H  0.74741769  0.80725783  0.28056834     0.11900
H1559       H  0.68209359  0.83605923  0.26075816     0.08500
H1560       H  0.69827934  0.87445913  0.26197414     0.11300
C1561       C  0.07662873  0.62450548  0.28475038    -0.03300
C1562       C  0.06692961  0.62929462  0.26322099    -0.05900
C1563       C  0.04328971  0.63404931  0.26128455    -0.21000
C1564       C  0.02896229  0.63448853  0.28083860     0.24700
C1565       C  0.03908459  0.63079257  0.30248703    -0.18600
C1566       C  0.06253636  0.62576070  0.30434419    -0.08500
C1567       C  0.00339086  0.63620089  0.27802434    -0.18800
C1568       C  0.98912984  0.64326174  0.29500562    -0.23600
C1569       C  0.96339069  0.64162302  0.29488110     0.26800
C1570       C  0.95145248  0.65035180  0.31400504    -0.20400
C1571       C  0.92797781  0.64615417  0.31699742    -0.10000
C1572       C  0.91558477  0.63342972  0.30075304    -0.10600
C1573       C  0.92694482  0.62595965  0.28078508    -0.03500
C1574       C  0.95068167  0.62988041  0.27789442    -0.18600
H1575       H  0.07725229  0.62776386  0.24778456     0.10500
H1576       H  0.03600376  0.63653739  0.24436796     0.10500
H1577       H  0.02877129  0.63023117  0.31796152     0.10200
H1578       H  0.06947720  0.62156529  0.32108155     0.11300
H1579       H  0.99633086  0.63091038  0.26165896     0.11400
H1580       H  0.99676228  0.65004088  0.31057415     0.13300
H1581       H  0.96056833  0.65950105  0.32737063     0.09800
H1582       H  0.91966563  0.65196467  0.33263121     0.11900
H1583       H  0.91784719  0.61573592  0.26821783     0.08500
H1584       H  0.95903292  0.62268575  0.26294319     0.11300
C1585       C  0.72353536  0.61026745  0.07736837    -0.03300
C1586       C  0.71863441  0.63341609  0.07251927    -0.05900
C1587       C  0.71942541  0.64158518  0.04974011    -0.21000
C1588       C  0.72564140  0.62696365  0.03143039     0.24700
C1589       C  0.73147461  0.60406169  0.03657135    -0.18600
C1590       C  0.73030718  0.59586037  0.05915836    -0.08500
C1591       C  0.72305408  0.63509752  0.00712941    -0.18800
C1592       C  0.73333899  0.62502202  0.98878566    -0.23600
C1593       C  0.72655170  0.62926179  0.96431338     0.26800
C1594       C  0.74128420  0.62234685  0.94630049    -0.20400
C1595       C  0.73373389  0.62229304  0.92332555    -0.10000
C1596       C  0.71111156  0.62876005  0.91799494    -0.10600
C1597       C  0.69689501  0.63687852  0.93583618    -0.03500
C1598       C  0.70445529  0.63717644  0.95860995    -0.18600
H1599       H  0.71308840  0.64485466  0.08611627     0.10500
H1600       H  0.71453830  0.65922973  0.04632165     0.10500
H1601       H  0.73575572  0.59199820  0.02310007     0.10200
H1602       H  0.73414131  0.57790833  0.06232567     0.11300
H1603       H  0.71142362  0.64940237  0.00431246     0.11400
H1604       H  0.74658272  0.61221441  0.99169941     0.13300
H1605       H  0.75835960  0.61602357  0.95012537     0.09800
H1606       H  0.74502822  0.61577068  0.91002391     0.11900
H1607       H  0.67935766  0.64200818  0.93230345     0.08500
H1608       H  0.69230497  0.64220241  0.97176603     0.11300
C1609       C  0.07933019  0.62608766  0.71044990    -0.03300
C1610       C  0.07294762  0.62091419  0.73313071    -0.05900
C1611       C  0.04974303  0.62199167  0.73987840    -0.21000
C1612       C  0.03251212  0.62859545  0.72422826     0.24700
C1613       C  0.03926223  0.63510352  0.70190223    -0.18600
C1614       C  0.06233454  0.63371877  0.69512543    -0.08500
C1615       C  0.00776496  0.62555418  0.73077450    -0.18800
C1616       C  0.98982844  0.63469219  0.71912071    -0.23600
C1617       C  0.96532242  0.62760143  0.72270090     0.26800
C1618       C  0.94742176  0.64173093  0.71452617    -0.20400
C1619       C  0.92448326  0.63403921  0.71460795    -0.10000
C1620       C  0.91910367  0.61184186  0.72244223    -0.10600
C1621       C  0.93683500  0.59811571  0.73142651    -0.03500
C1622       C  0.95958115  0.60585385  0.73163776    -0.18600
H1623       H  0.08560518  0.61449139  0.74513454     0.10500
H1624       H  0.04510966  0.61665387  0.75711329     0.10500
H1625       H  0.02672544  0.63982019  0.68907645     0.10200
H1626       H  0.06678197  0.63749875  0.67743294     0.11300
H1627       H  0.00428970  0.61451491  0.74541628     0.11400
H1628       H  0.99308517  0.64736277  0.70581998     0.13300
H1629       H  0.95130587  0.65846676  0.70731725     0.09800
H1630       H  0.91123543  0.64485251  0.70728435     0.11900
H1631       H  0.93320867  0.58086556  0.73748038     0.08500
H1632       H  0.97269652  0.59411049  0.73756414     0.11300
C1633       C  0.72463393  0.81715418  0.70793518    -0.03300
C1634       C  0.71960372  0.82177082  0.73109027    -0.05900
C1635       C  0.71961126  0.84456093  0.73927332    -0.21000
C1636       C  0.72504931  0.86313400  0.72463193     0.24700
C1637       C  0.73114444  0.85824565  0.70176115    -0.18600
C1638       C  0.73094398  0.83564955  0.69360342    -0.08500
C1639       C  0.72170468  0.88734895  0.73279995    -0.18800
C1640       C  0.73137679  0.90595033  0.72257922    -0.23600
C1641       C  0.72481220  0.93040127  0.72741681     0.26800
C1642       C  0.73897031  0.94831376  0.71921054    -0.20400
C1643       C  0.73177093  0.97137916  0.72022126    -0.10000
C1644       C  0.71004667  0.97696029  0.72911910    -0.10600
C1645       C  0.69634149  0.95922285  0.73825953    -0.03500
C1646       C  0.70360882  0.93628066  0.73752771    -0.18600
H1647       H  0.71447013  0.80797911  0.74251388     0.10500
H1648       H  0.71465266  0.84776517  0.75692937     0.10500
H1649       H  0.73488125  0.87185877  0.68965142     0.10200
H1650       H  0.73494257  0.83274408  0.67565272     0.11300
H1651       H  0.71031468  0.88979564  0.74737777     0.11400
H1652       H  0.74433479  0.90329804  0.70940395     0.13300
H1653       H  0.75529202  0.94436344  0.71113131     0.09800
H1654       H  0.74249907  0.98461518  0.71267488     0.11900
H1655       H  0.67940352  0.96302705  0.74504924     0.08500
H1656       H  0.69187796  0.92321279  0.74364097     0.11300
C1657       C  0.92753206  0.85597686  0.35196405    -0.03300
C1658       C  0.92372616  0.84000128  0.33442152    -0.05900
C1659       C  0.90350601  0.82712109  0.33404950    -0.21000
C1660       C  0.88670267  0.82985957  0.35123514     0.24700
C1661       C  0.89044541  0.84629126  0.36864052    -0.18600
C1662       C  0.91073729  0.85917191  0.36897877    -0.08500
C1663       C  0.86619866  0.81455796  0.35047473    -0.18800
C1664       C  0.84989468  0.81328193  0.36692923    -0.23600
C1665       C  0.83198779  0.79508126  0.36701482     0.26800
C1666       C  0.82372994  0.78704019  0.38819143    -0.20400
C1667       C  0.80919686  0.76795834  0.38922064    -0.10000
C1668       C  0.80244997  0.75656784  0.36902155    -0.10600
C1669       C  0.80935995  0.76568698  0.34771332    -0.03500
C1670       C  0.82391611  0.78480314  0.34670118    -0.18600
H1671       H  0.93655233  0.83736197  0.32115413     0.10500
H1672       H  0.90115478  0.81467868  0.32042564     0.10500
H1673       H  0.87805120  0.84930033  0.38213659     0.10200
H1674       H  0.91350242  0.87145952  0.38266329     0.11300
H1675       H  0.86549360  0.80251672  0.33626837     0.11400
H1676       H  0.85087779  0.82409104  0.38201949     0.13300
H1677       H  0.82939687  0.79486990  0.40407219     0.09800
H1678       H  0.80397086  0.76164288  0.40594346     0.11900
H1679       H  0.80414209  0.75763365  0.33180496     0.08500
H1680       H  0.82911912  0.79118127  0.33001312     0.11300
C1681       C  0.14822900  0.70647792  0.37725221    -0.03300
C1682       C  0.14039095  0.71705928  0.39750670    -0.05900
C1683       C  0.12078234  0.73087095  0.39726737    -0.21000
C1684       C  0.10858931  0.73446046  0.37683177     0.24700
C1685       C  0.11565334  0.72280209  0.35683286    -0.18600
C1686       C  0.13536745  0.70908409  0.35703797    -0.08500
C1687       C  0.08961477  0.75152495  0.37700695    -0.18800
C1688       C  0.08228400  0.76257081  0.35806087    -0.23600
C1689       C  0.06713375  0.78304383  0.35889065     0.26800
C1690       C  0.05451901  0.78898423  0.33923963    -0.20400
C1691       C  0.04201634  0.80948200  0.33852439    -0.10000
C1692       C  0.04224792  0.82445341  0.35735283    -0.10600
C1693       C  0.05453263  0.81852145  0.37711705    -0.03500
C1694       C  0.06690785  0.79798988  0.37792093    -0.18600
H1695       H  0.14985234  0.71538515  0.41340689     0.10500
H1696       H  0.11564246  0.73950653  0.41294676     0.10500
H1697       H  0.10627999  0.72434517  0.34091449     0.10200
H1698       H  0.14074992  0.70083591  0.34124306     0.11300
H1699       H  0.08290409  0.75658308  0.39366909     0.11400
H1700       H  0.08851511  0.75752192  0.34124568     0.13300
H1701       H  0.05465035  0.77790610  0.32429295     0.09800
H1702       H  0.03256447  0.81393299  0.32315015     0.11900
H1703       H  0.05486824  0.83003301  0.39172637     0.08500
H1704       H  0.07701592  0.79446825  0.39307242     0.11300
C1705       C  0.95907116  0.97098156  0.35646813    -0.03300
C1706       C  0.96309114  0.98804967  0.33991760    -0.05900
C1707       C  0.95081356  0.00869540  0.34062604    -0.21000
C1708       C  0.93453507  0.01270538  0.35802497     0.24700
C1709       C  0.93060593  0.99549525  0.37463743    -0.18600
C1710       C  0.94284485  0.97485909  0.37387399    -0.08500
C1711       C  0.92075050  0.03417651  0.35733472    -0.18800
C1712       C  0.91026821  0.04305745  0.37597477    -0.23600
C1713       C  0.89364068  0.06245531  0.37521482     0.26800
C1714       C  0.88690123  0.07264094  0.39601289    -0.20400
C1715       C  0.86893303  0.08855789  0.39665947    -0.10000
C1716       C  0.85719636  0.09459508  0.37646787    -0.10600
C1717       C  0.86477720  0.08539756  0.35544872    -0.03500
C1718       C  0.88269203  0.06940420  0.35481067    -0.18600
H1719       H  0.97552101  0.98522904  0.32631839     0.10500
H1720       H  0.95393698  0.02152885  0.32748192     0.10500
H1721       H  0.91764251  0.99753639  0.38783073     0.10200
H1722       H  0.93948075  0.96175046  0.38668639     0.11300
H1723       H  0.91935534  0.04279251  0.34087607     0.11400
H1724       H  0.91358312  0.03549938  0.39269678     0.13300
H1725       H  0.89501784  0.06764152  0.41197952     0.09800
H1726       H  0.86367647  0.09543779  0.41313625     0.11900
H1727       H  0.85613318  0.08964758  0.33955694     0.08500
H1728       H  0.88693944  0.06177388  0.33842905     0.11300
C1729       C  0.07399425  0.93994907  0.35583326    -0.03300
C1730       C  0.07854523  0.95459563  0.33727353    -0.05900
C1731       C  0.09849801  0.96790527  0.33689506    -0.21000
C1732       C  0.11426964  0.96696918  0.35511348     0.24700
C1733       C  0.10978471  0.95185371  0.37358401    -0.18600
C1734       C  0.08979928  0.93847027  0.37387932    -0.08500
C1735       C  0.13413748  0.98313735  0.35450789    -0.18800
C1736       C  0.15058673  0.98454837  0.37071306    -0.23600
C1737       C  0.16751928  0.00366251  0.37126973     0.26800
C1738       C  0.17494422  0.01502259  0.35123445    -0.20400
C1739       C  0.18849855  0.03479534  0.35273040    -0.10000
C1740       C  0.19497387  0.04362156  0.37425532    -0.10600
C1741       C  0.18889689  0.03128721  0.39415361    -0.03500
C1742       C  0.17542277  0.01144505  0.39263177    -0.18600
H1743       H  0.06647665  0.95589394  0.32320251     0.10500
H1744       H  0.10139425  0.97933474  0.32246542     0.10500
H1745       H  0.12119826  0.95047993  0.38808865     0.10200
H1746       H  0.08642492  0.92725277  0.38836851     0.11300
H1747       H  0.13421697  0.99561039  0.34062434     0.11400
H1748       H  0.15047780  0.97295943  0.38527170     0.13300
H1749       H  0.17000765  0.00895672  0.33439709     0.09800
H1750       H  0.19321259  0.04358648  0.33700121     0.11900
H1751       H  0.19386118  0.03737950  0.41098901     0.08500
H1752       H  0.17024264  0.00278000  0.40829696     0.11300
C1753       C  0.95181063  0.82798420  0.60791293    -0.03300
C1754       C  0.95445051  0.81205124  0.59006001    -0.05900
C1755       C  0.94178787  0.79166408  0.59012645    -0.21000
C1756       C  0.92635947  0.78677451  0.60807761     0.24700
C1757       C  0.92370707  0.80287260  0.62596255    -0.18600
C1758       C  0.93647157  0.82320740  0.62592689    -0.08500
C1759       C  0.91242298  0.76544442  0.60670524    -0.18800
C1760       C  0.90199709  0.75565844  0.62496669    -0.23600
C1761       C  0.88612377  0.73561818  0.62358558     0.26800
C1762       C  0.87634166  0.72730308  0.64406012    -0.20400
C1763       C  0.85923495  0.71046627  0.64360824    -0.10000
C1764       C  0.85143250  0.70161295  0.62258706    -0.10600
C1765       C  0.86228343  0.70875457  0.60220743    -0.03500
C1766       C  0.87934020  0.72560481  0.60263972    -0.18600
H1767       H  0.96618756  0.81552458  0.57599892     0.10500
H1768       H  0.94397628  0.77969792  0.57604094     0.10500
H1769       H  0.91144905  0.80022321  0.63970229     0.10200
H1770       H  0.93419321  0.83540538  0.63979798     0.11300
H1771       H  0.91107024  0.75770789  0.58987901     0.11400
H1772       H  0.90477191  0.76288852  0.64189720     0.13300
H1773       H  0.88131253  0.73449127  0.66046799     0.09800
H1774       H  0.85139502  0.70522979  0.65967712     0.11900
H1775       H  0.85687473  0.70211353  0.58571552     0.08500
H1776       H  0.88630653  0.73109189  0.58634424     0.11300
C1777       C  0.80092456  0.04732790  0.62252636    -0.03300
C1778       C  0.80608918  0.03775152  0.60094820    -0.05900
C1779       C  0.82131994  0.01933482  0.59905428    -0.21000
C1780       C  0.83180744  0.01000539  0.61860933     0.24700
C1781       C  0.82546708  0.01853980  0.64038132    -0.18600
C1782       C  0.81021668  0.03705245  0.64227912    -0.08500
C1783       C  0.84997735  0.99235564  0.61512557    -0.18800
C1784       C  0.86509338  0.98585545  0.63133155    -0.23600
C1785       C  0.88481793  0.97055997  0.62624592     0.26800
C1786       C  0.89330182  0.95622560  0.64366740    -0.20400
C1787       C  0.91267893  0.94256367  0.63978739    -0.10000
C1788       C  0.92406401  0.94340348  0.61855564    -0.10600
C1789       C  0.91574793  0.95772173  0.60111090    -0.03500
C1790       C  0.89623172  0.97119805  0.60488088    -0.18600
H1791       H  0.79905276  0.04501228  0.58534460     0.10500
H1792       H  0.82560793  0.01294644  0.58209603     0.10500
H1793       H  0.83243008  0.01141594  0.65601674     0.10200
H1794       H  0.80635162  0.04379387  0.65918567     0.11300
H1795       H  0.85178023  0.98531435  0.59793778     0.11400
H1796       H  0.86347743  0.99197500  0.64882284     0.13300
H1797       H  0.88496560  0.95569732  0.66032489     0.09800
H1798       H  0.91912737  0.93172273  0.65346609     0.11900
H1799       H  0.92462739  0.95873452  0.58475743     0.08500
H1800       H  0.89062199  0.98265078  0.59135056     0.11300
C1801       C  0.06811191  0.85657833  0.60469560    -0.03300
C1802       C  0.07286204  0.84145715  0.58659377    -0.05900
C1803       C  0.09254534  0.82775698  0.58710385    -0.21000
C1804       C  0.10767470  0.82872965  0.60582622     0.24700
C1805       C  0.10331487  0.84457543  0.62358227    -0.18600
C1806       C  0.08361915  0.85834731  0.62301331    -0.08500
C1807       C  0.12743612  0.81260867  0.60618992    -0.18800
C1808       C  0.13788777  0.80549786  0.62557669    -0.23600
C1809       C  0.15534107  0.78681956  0.62573181     0.26800
C1810       C  0.15842426  0.77381664  0.64583368    -0.20400
C1811       C  0.17323166  0.75484264  0.64598544    -0.10000
C1812       C  0.18528123  0.74854919  0.62598810    -0.10600
C1813       C  0.18301694  0.76225199  0.60622711    -0.03500
C1814       C  0.16840123  0.78125856  0.60613586    -0.18600
H1815       H  0.06108722  0.83998858  0.57229937     0.10500
H1816       H  0.09562558  0.81587242  0.57311251     0.10500
H1817       H  0.11494975  0.84636465  0.63791514     0.10200
H1818       H  0.08021655  0.87009530  0.63704379     0.11300
H1819       H  0.13191320  0.80462816  0.58995381     0.11400
H1820       H  0.13197579  0.81185829  0.64208426     0.13300
H1821       H  0.14881226  0.77791538  0.66126378     0.09800
H1822       H  0.17474405  0.74477029  0.66156254     0.11900
H1823       H  0.19243609  0.75821425  0.59067158     0.08500
H1824       H  0.16738926  0.79142511  0.59061282     0.11300
C1825       C  0.04075024  0.97087680  0.61812750    -0.03300
C1826       C  0.05623525  0.97085108  0.63648585    -0.05900
C1827       C  0.07033239  0.98980837  0.64038615    -0.21000
C1828       C  0.06927352  0.00921312  0.62604208     0.24700
C1829       C  0.05305270  0.00949784  0.60805688    -0.18600
C1830       C  0.03896974  0.99040825  0.60413171    -0.08500
C1831       C  0.08605638  0.02805858  0.63022174    -0.18800
C1832       C  0.08942641  0.04615030  0.61614486    -0.23600
C1833       C  0.10869086  0.06264212  0.61912267     0.26800
C1834       C  0.11710788  0.07414073  0.59967115    -0.20400
C1835       C  0.13628526  0.08845420  0.60122013    -0.10000
C1836       C  0.14743689  0.09178386  0.62236859    -0.10600
C1837       C  0.13843690  0.08102903  0.64206660    -0.03500
C1838       C  0.11920656  0.06668239  0.64050390    -0.18600
H1839       H  0.05764989  0.95593890  0.64756177     0.10500
H1840       H  0.08247260  0.98909344  0.65443658     0.10500
H1841       H  0.05115794  0.02413247  0.59680400     0.10200
H1842       H  0.02691996  0.99070283  0.58999119     0.11300
H1843       H  0.09738466  0.02584054  0.64481636     0.11400
H1844       H  0.07927075  0.04797597  0.60070171     0.13300
H1845       H  0.10921336  0.07153200  0.58304680     0.09800
H1846       H  0.14257213  0.09660465  0.58569380     0.11900
H1847       H  0.14640635  0.08344424  0.65866810     0.08500
H1848       H  0.11271920  0.05884220  0.65607626     0.11300
C1849       C  0.38994964  0.83619141  0.95104404    -0.03300
C1850       C  0.40733804  0.83688792  0.93429779    -0.05900
C1851       C  0.40918660  0.81936616  0.91799481    -0.21000
C1852       C  0.39348676  0.80106485  0.91798075     0.24700
C1853       C  0.37649326  0.80005098  0.93522565    -0.18600
C1854       C  0.37471635  0.81752708  0.95158087    -0.08500
C1855       C  0.39524475  0.78327565  0.89984350    -0.18800
C1856       C  0.37664609  0.77238124  0.89152833    -0.23600
C1857       C  0.37766382  0.75487622  0.87304200     0.26800
C1858       C  0.35790468  0.75088003  0.85990151    -0.20400
C1859       C  0.35776060  0.73391870  0.84293495    -0.10000
C1860       C  0.37738522  0.72042356  0.83884493    -0.10600
C1861       C  0.39722515  0.72446562  0.85199274    -0.03500
C1862       C  0.39736370  0.74145779  0.86895316    -0.18600
H1863       H  0.41926398  0.85117697  0.93370753     0.10500
H1864       H  0.42254139  0.82038796  0.90502434     0.10500
H1865       H  0.36459699  0.78577635  0.93613803     0.10200
H1866       H  0.36127088  0.81669257  0.96446691     0.11300
H1867       H  0.41200313  0.78030957  0.89215250     0.11400
H1868       H  0.35971219  0.77725586  0.89774337     0.13300
H1869       H  0.34247911  0.76091644  0.86280184     0.09800
H1870       H  0.34220143  0.73131479  0.83312837     0.11900
H1871       H  0.41259121  0.71426059  0.84945248     0.08500
H1872       H  0.41270944  0.74357894  0.87916883     0.11300
C1873       C  0.38756125  0.85040105  0.07040178    -0.03300
C1874       C  0.40472050  0.85506184  0.08659607    -0.05900
C1875       C  0.40593420  0.84229213  0.10685253    -0.21000
C1876       C  0.38979706  0.82495591  0.11134261     0.24700
C1877       C  0.37289724  0.81999470  0.09480714    -0.18600
C1878       C  0.37176558  0.83270478  0.07450561    -0.08500
C1879       C  0.39180170  0.81140899  0.13273808    -0.18800
C1880       C  0.37352110  0.80149260  0.14290590    -0.23600
C1881       C  0.37508311  0.78446675  0.16184655     0.26800
C1882       C  0.35457038  0.77623566  0.17159561    -0.20400
C1883       C  0.35479119  0.75757511  0.18670628    -0.10000
C1884       C  0.37560841  0.74679934  0.19242421    -0.10600
C1885       C  0.39625694  0.75594088  0.18381541    -0.03500
C1886       C  0.39603605  0.77447229  0.16862504    -0.18600
H1887       H  0.41697784  0.86876931  0.08361311     0.10500
H1888       H  0.41928746  0.84615147  0.11918309     0.10500
H1889       H  0.36074240  0.80613810  0.09734229     0.10200
H1890       H  0.35843411  0.82896559  0.06211814     0.11300
H1891       H  0.40881776  0.80977894  0.14003997     0.11400
H1892       H  0.35647075  0.80520354  0.13632160     0.13300
H1893       H  0.33819556  0.78363869  0.16675494     0.09800
H1894       H  0.33858356  0.75109093  0.19321320     0.11900
H1895       H  0.41262847  0.74812656  0.18794249     0.08500
H1896       H  0.41230960  0.77994321  0.16155308     0.11300
C1897       C  0.37570500  0.95403576  0.93865168    -0.03300
C1898       C  0.35409163  0.96318769  0.93338501    -0.05900
C1899       C  0.35196073  0.97975418  0.91615723    -0.21000
C1900       C  0.37144718  0.98762970  0.90426035     0.24700
C1901       C  0.39303547  0.97785647  0.90920016    -0.18600
C1902       C  0.39511491  0.96120728  0.92634507    -0.08500
C1903       C  0.36854946  0.00572707  0.88659255    -0.18800
C1904       C  0.38543414  0.02043328  0.88076015    -0.23600
C1905       C  0.38298822  0.03807341  0.86257698     0.26800
C1906       C  0.40284108  0.04566419  0.85120122    -0.20400
C1907       C  0.40135966  0.06166879  0.83342092    -0.10000
C1908       C  0.37993971  0.07062470  0.82676605    -0.10600
C1909       C  0.36010286  0.06361080  0.83869216    -0.03500
C1910       C  0.36159516  0.04752107  0.85646460    -0.18600
H1911       H  0.33899851  0.95776879  0.94289110     0.10500
H1912       H  0.33514758  0.98683328  0.91247203     0.10500
H1913       H  0.40831081  0.98284898  0.89981615     0.10200
H1914       H  0.41188534  0.95418613  0.93031568     0.11300
H1915       H  0.35185151  0.00703070  0.87845923     0.11400
H1916       H  0.40207104  0.01913829  0.88902873     0.13300
H1917       H  0.41953552  0.03882025  0.85577146     0.09800
H1918       H  0.41702488  0.06678305  0.82472217     0.11900
H1919       H  0.34337114  0.07035708  0.83416650     0.08500
H1920       H  0.34600357  0.04271895  0.86541768     0.11300
C1921       C  0.37258374  0.96732503  0.05619829    -0.03300
C1922       C  0.35399059  0.98240258  0.05317617    -0.05900
C1923       C  0.35129456  0.00140032  0.06759898    -0.21000
C1924       C  0.36728351  0.00568362  0.08503007     0.24700
C1925       C  0.38546320  0.99010139  0.08849221    -0.18600
C1926       C  0.38811855  0.97111789  0.07412380    -0.08500
C1927       C  0.36456532  0.02624358  0.09971227    -0.18800
C1928       C  0.38294301  0.03785928  0.10748052    -0.23600
C1929       C  0.38199692  0.05702954  0.12423673     0.26800
C1930       C  0.40264649  0.06368086  0.13462175    -0.20400
C1931       C  0.40277885  0.08002734  0.15206899    -0.10000
C1932       C  0.38218505  0.09018206  0.15960327    -0.10600
C1933       C  0.36160006  0.08450311  0.14837653    -0.03500
C1934       C  0.36147502  0.06810225  0.13081553    -0.18600
H1935       H  0.34172958  0.97952821  0.03951987     0.10500
H1936       H  0.33700727  0.01301872  0.06486490     0.10500
H1937       H  0.39756542  0.99249051  0.10236771     0.10200
H1938       H  0.40238443  0.95946480  0.07683574     0.11300
H1939       H  0.34723861  0.03167264  0.10387845     0.11400
H1940       H  0.39993726  0.03226488  0.10205920     0.13300
H1941       H  0.41873149  0.05561432  0.12976777     0.09800
H1942       H  0.41900149  0.08406396  0.16017765     0.11900
H1943       H  0.34547035  0.09222745  0.15358071     0.08500
H1944       H  0.34524299  0.06403426  0.12284986     0.11300
C1945       C  0.84379060  0.27552123  0.81197975    -0.03300
C1946       C  0.85757098  0.29528337  0.81386791    -0.05900
C1947       C  0.87492207  0.29642358  0.83039402    -0.21000
C1948       C  0.87852598  0.27803385  0.84556699     0.24700
C1949       C  0.86545404  0.25787869  0.84297884    -0.18600
C1950       C  0.84827851  0.25665413  0.82638021    -0.08500
C1951       C  0.89586235  0.28032867  0.86402390    -0.18800
C1952       C  0.89321505  0.26995152  0.88456964    -0.23600
C1953       C  0.90970239  0.27144745  0.90395085     0.26800
C1954       C  0.90601289  0.25704981  0.92301038    -0.20400
C1955       C  0.92087599  0.25753657  0.94174762    -0.10000
C1956       C  0.93964547  0.27259841  0.94188024    -0.10600
C1957       C  0.94340935  0.28714781  0.92302302    -0.03500
C1958       C  0.92858145  0.28663529  0.90418966    -0.18600
H1959       H  0.85469843  0.31001095  0.80284359     0.10500
H1960       H  0.88504912  0.31198054  0.83182787     0.10500
H1961       H  0.86839745  0.24301813  0.85377921     0.10200
H1962       H  0.83811561  0.24110192  0.82528281     0.11300
H1963       H  0.91039666  0.29147720  0.86068260     0.11400
H1964       H  0.87790049  0.25969122  0.88754953     0.13300
H1965       H  0.89162524  0.24523269  0.92335678     0.09800
H1966       H  0.91780373  0.24612306  0.95615155     0.11900
H1967       H  0.95784928  0.29890168  0.92293894     0.08500
H1968       H  0.93200932  0.29829818  0.89015505     0.11300
C1969       C  0.16347179  0.27215689  0.83333767    -0.03300
C1970       C  0.14795517  0.29052673  0.83539746    -0.05900
C1971       C  0.12958478  0.28919107  0.85083993    -0.21000
C1972       C  0.12667833  0.26970850  0.86478876     0.24700
C1973       C  0.14180919  0.25104420  0.86223199    -0.18600
C1974       C  0.16000556  0.25227501  0.84664305    -0.08500
C1975       C  0.10782124  0.26959448  0.88188631    -0.18800
C1976       C  0.10873918  0.25756992  0.90164546    -0.23600
C1977       C  0.09062523  0.25893822  0.91950152     0.26800
C1978       C  0.08762982  0.24038683  0.93469927    -0.20400
C1979       C  0.07063458  0.24118340  0.95171261    -0.10000
C1980       C  0.05663099  0.26066896  0.95380574    -0.10600
C1981       C  0.05991840  0.27940998  0.93905611    -0.03500
C1982       C  0.07685536  0.27865829  0.92213031    -0.18600
H1983       H  0.15005304  0.30593725  0.82514095     0.10500
H1984       H  0.11793941  0.30365717  0.85231763     0.10500
H1985       H  0.13963269  0.23542211  0.87209810     0.10200
H1986       H  0.17161537  0.23777419  0.84533251     0.11300
H1987       H  0.09322184  0.28066100  0.87842388     0.11400
H1988       H  0.12326374  0.24640641  0.90511338     0.13300
H1989       H  0.09823961  0.22515253  0.93317567     0.09800
H1990       H  0.06820033  0.22659199  0.96303742     0.11900
H1991       H  0.04928317  0.29462155  0.94067383     0.08500
H1992       H  0.07926231  0.29368157  0.91143248     0.11300
C1993       C  0.92765989  0.28380664  0.05935011    -0.03300
C1994       C  0.92069082  0.30533257  0.06757030    -0.05900
C1995       C  0.90104995  0.30717602  0.08132564    -0.21000
C1996       C  0.88805604  0.28757203  0.08686417     0.24700
C1997       C  0.89544012  0.26594208  0.07887204    -0.18600
C1998       C  0.91502631  0.26414038  0.06511434    -0.08500
C1999       C  0.86762801  0.29015808  0.10192173    -0.18800
C2000       C  0.85002182  0.27512201  0.10214781    -0.23600
C2001       C  0.83077022  0.27641770  0.11884480     0.26800
C2002       C  0.81926704  0.25607142  0.12480906    -0.20400
C2003       C  0.80259732  0.25607219  0.14211244    -0.10000
C2004       C  0.79693062  0.27652550  0.15366050    -0.10600
C2005       C  0.80735632  0.29717409  0.14660463    -0.03500
C2006       C  0.82409615  0.29714367  0.12936408    -0.18600
H2007       H  0.93032523  0.32064903  0.06313670     0.10500
H2008       H  0.89585815  0.32396502  0.08749346     0.10500
H2009       H  0.88645574  0.25032680  0.08348569     0.10200
H2010       H  0.92037428  0.24741023  0.05891712     0.11300
H2011       H  0.86744594  0.30484333  0.11338606     0.11400
H2012       H  0.85024926  0.26049196  0.09060313     0.13300
H2013       H  0.82384838  0.23994077  0.11670311     0.09800
H2014       H  0.79470864  0.23990228  0.14693850     0.11900
H2015       H  0.80321872  0.31328890  0.15494945     0.08500
H2016       H  0.83187489  0.31334144  0.12456345     0.11300
C2017       C  0.04556329  0.26786374  0.07317237    -0.03300
C2018       C  0.05713971  0.24741300  0.07838733    -0.05900
C2019       C  0.07215662  0.24649919  0.09701459    -0.21000
C2020       C  0.07582339  0.26596639  0.11079128     0.24700
C2021       C  0.06414608  0.28651882  0.10541800    -0.18600
C2022       C  0.04906634  0.28737064  0.08680798    -0.08500
C2023       C  0.09279317  0.26421594  0.12972661    -0.18800
C2024       C  0.09499084  0.27970891  0.14675497    -0.23600
C2025       C  0.11359969  0.27825183  0.16401572     0.26800
C2026       C  0.12271804  0.29866167  0.17293295    -0.20400
C2027       C  0.14160977  0.29806487  0.18764930    -0.10000
C2028       C  0.15162445  0.27696372  0.19394435    -0.10600
C2029       C  0.14162473  0.25646189  0.18604106    -0.03500
C2030       C  0.12277683  0.25708342  0.17125879    -0.18600
H2031       H  0.05457946  0.23221709  0.06796664     0.10500
H2032       H  0.08102063  0.23052279  0.10063203     0.10500
H2033       H  0.06686264  0.30213345  0.11505207     0.10200
H2034       H  0.04032715  0.30332559  0.08281913     0.11300
H2035       H  0.10440370  0.24960907  0.12918715     0.11400
H2036       H  0.08393104  0.29468265  0.14744528     0.13300
H2037       H  0.11573426  0.31516110  0.16783358     0.09800
H2038       H  0.14869814  0.31419688  0.19360336     0.11900
H2039       H  0.14865255  0.23990621  0.19084339     0.08500
H2040       H  0.11555982  0.24097795  0.16543304     0.11300
C2041       C  0.64590769  0.84760315  0.92071724    -0.03300
C2042       C  0.66265357  0.83094564  0.91597505    -0.05900
C2043       C  0.66179833  0.81834854  0.89561510    -0.21000
C2044       C  0.64409772  0.82201780  0.87968664     0.24700
C2045       C  0.62777158  0.83937369  0.88408733    -0.18600
C2046       C  0.62868251  0.85203348  0.90449994    -0.08500
C2047       C  0.64320545  0.80698908  0.85909817    -0.18800
C2048       C  0.62385713  0.80266521  0.84718871    -0.23600
C2049       C  0.62261917  0.78452616  0.82926881     0.26800
C2050       C  0.60153206  0.77352331  0.82533084    -0.20400
C2051       C  0.60025563  0.75450738  0.81070843    -0.10000
C2052       C  0.62009199  0.74617937  0.79965540    -0.10600
C2053       C  0.64085865  0.75821731  0.80235121    -0.03500
C2054       C  0.64210299  0.77724448  0.81688934    -0.18600
H2055       H  0.67615960  0.82745899  0.92825776     0.10500
H2056       H  0.67469811  0.80525520  0.89257502     0.10500
H2057       H  0.61430676  0.84323184  0.87192086     0.10200
H2058       H  0.61576448  0.86502878  0.90784626     0.11300
H2059       H  0.65866503  0.79730409  0.85517379     0.11400
H2060       H  0.60783201  0.81068902  0.85237935     0.13300
H2061       H  0.58619104  0.77900871  0.83438575     0.09800
H2062       H  0.58393172  0.74578057  0.80886066     0.11900
H2063       H  0.65637273  0.75257173  0.79371278     0.08500
H2064       H  0.65844504  0.78591371  0.81863304     0.11300
C2065       C  0.65047764  0.96191198  0.95394650    -0.03300
C2066       C  0.67042239  0.97177220  0.94463768    -0.05900
C2067       C  0.66895523  0.99176620  0.93133583    -0.21000
C2068       C  0.64759653  0.00238696  0.92740414     0.24700
C2069       C  0.62784249  0.99300055  0.93791792    -0.18600
C2070       C  0.62927999  0.97279416  0.95072303    -0.08500
C2071       C  0.64666369  0.02269984  0.91180407    -0.18800
C2072       C  0.62698698  0.03092605  0.90273481    -0.23600
C2073       C  0.62572338  0.04933527  0.88503363     0.26800
C2074       C  0.60486451  0.05227445  0.87332812    -0.20400
C2075       C  0.60304320  0.06795067  0.85526638    -0.10000
C2076       C  0.62209857  0.08113331  0.84845149    -0.10600
C2077       C  0.64267275  0.07910668  0.86092391    -0.03500
C2078       C  0.64448003  0.06344409  0.87907106    -0.18600
H2079       H  0.68697467  0.96365130  0.94719064     0.10500
H2080       H  0.68449399  0.99869563  0.92372078     0.10500
H2081       H  0.61114477  0.00091719  0.93639049     0.10200
H2082       H  0.61378363  0.96553179  0.95811750     0.11300
H2083       H  0.66299520  0.02992207  0.90647947     0.11400
H2084       H  0.61082192  0.02276641  0.90701761     0.13300
H2085       H  0.59002596  0.04189154  0.87772042     0.09800
H2086       H  0.58686274  0.06919228  0.84621650     0.11900
H2087       H  0.65760059  0.08927088  0.85636892     0.08500
H2088       H  0.66065259  0.06243198  0.88806688     0.11300
C2089       C  0.62473645  0.69435774  0.14041332    -0.03300
C2090       C  0.60434505  0.70392827  0.13177574    -0.05900
C2091       C  0.60489347  0.71856819  0.11280580    -0.21000
C2092       C  0.62575433  0.72394190  0.10190121     0.24700
C2093       C  0.64598969  0.71303869  0.10951386    -0.18600
C2094       C  0.64544653  0.69843726  0.12861521    -0.08500
C2095       C  0.62550226  0.74235286  0.08415380    -0.18800
C2096       C  0.64435807  0.75161524  0.07438651    -0.23600
C2097       C  0.64333753  0.77277937  0.06020619     0.26800
C2098       C  0.66026050  0.77660504  0.04340001    -0.20400
C2099       C  0.66059116  0.79714203  0.03089660    -0.10000
C2100       C  0.64412700  0.81424256  0.03522691    -0.10600
C2101       C  0.62718035  0.81047119  0.05195328    -0.03500
C2102       C  0.62682071  0.78998544  0.06442127    -0.18600
H2103       H  0.58804177  0.70109764  0.14034326     0.10500
H2104       H  0.58901092  0.72653738  0.10727216     0.10500
H2105       H  0.66242779  0.71615653  0.10145432     0.10200
H2106       H  0.66140844  0.69103629  0.13465182     0.11300
H2107       H  0.60884061  0.74961511  0.07993903     0.11400
H2108       H  0.66117033  0.74412903  0.07708179     0.13300
H2109       H  0.67332270  0.76374604  0.04007678     0.09800
H2110       H  0.67387723  0.79989004  0.01811045     0.11900
H2111       H  0.61448656  0.82360749  0.05561350     0.08500
H2112       H  0.61406019  0.78805109  0.07784105     0.11300
C2113       C  0.63989658  0.03531646  0.19076834    -0.03300
C2114       C  0.66161264  0.03268512  0.18039704    -0.05900
C2115       C  0.66568579  0.01497377  0.16472040    -0.21000
C2116       C  0.64822457  0.99940873  0.15894312     0.24700
C2117       C  0.62672356  0.00145090  0.17001577    -0.18600
C2118       C  0.62259711  0.01930270  0.18562575    -0.08500
C2119       C  0.65318957  0.98187284  0.14092762    -0.18800
C2120       C  0.63684295  0.97019902  0.12945780    -0.23600
C2121       C  0.64163075  0.95481698  0.10960001     0.26800
C2122       C  0.62487082  0.93862915  0.10335509    -0.20400
C2123       C  0.62739104  0.92551847  0.08340110    -0.10000
C2124       C  0.64663435  0.92852633  0.06917578    -0.10600
C2125       C  0.66380242  0.94413451  0.07564640    -0.03500
C2126       C  0.66133506  0.95723548  0.09564544    -0.18600
H2127       H  0.67540189  0.04465105  0.18394412     0.10500
H2128       H  0.68244853  0.01378140  0.15664573     0.10500
H2129       H  0.61295793  0.98944075  0.16679541     0.10200
H2130       H  0.60579164  0.02063328  0.19356132     0.11300
H2131       H  0.67108216  0.97937842  0.13625849     0.11400
H2132       H  0.61893731  0.97231205  0.13414292     0.13300
H2133       H  0.60949650  0.93650507  0.11368681     0.09800
H2134       H  0.61394221  0.91359605  0.07860535     0.11900
H2135       H  0.67870774  0.94673031  0.06475277     0.08500
H2136       H  0.67437600  0.96989819  0.09942268     0.11300
C2137       C  0.92374166  0.51886714  0.95830165    -0.03300
C2138       C  0.91277968  0.54023176  0.95630606    -0.05900
C2139       C  0.89339443  0.54266423  0.94239722    -0.21000
C2140       C  0.88443297  0.52375250  0.93041436     0.24700
C2141       C  0.89529486  0.50218896  0.93280520    -0.18600
C2142       C  0.91479579  0.49982002  0.94663428    -0.08500
C2143       C  0.86511359  0.52771741  0.91415257    -0.18800
C2144       C  0.85121137  0.51090711  0.90642443    -0.23600
C2145       C  0.83401470  0.51402483  0.88773994     0.26800
C2146       C  0.82601294  0.49431349  0.87647697    -0.20400
C2147       C  0.81149223  0.49611643  0.85754399    -0.10000
C2148       C  0.80450475  0.51776529  0.84927877    -0.10600
C2149       C  0.81149578  0.53752714  0.86124256    -0.03500
C2150       C  0.82603394  0.53570493  0.88033377    -0.18600
H2151       H  0.91957920  0.55512735  0.96512542     0.10500
H2152       H  0.88555122  0.55947503  0.94072100     0.10500
H2153       H  0.88945023  0.48730399  0.92338750    -0.13000
H2154       H  0.92320136  0.48324860  0.94789722     0.11300
H2155       H  0.86294869  0.54514319  0.90792084     0.11400
H2156       H  0.85332170  0.49360691  0.91308055     0.13300
H2157       H  0.83162493  0.47738739  0.88187509     0.09800
H2158       H  0.80635871  0.48043917  0.84896086     0.11900
H2159       H  0.80617133  0.55443827  0.85556172     0.08500
H2160       H  0.83104847  0.55134317  0.88896278     0.11300
C2161       C  0.95195223  0.53084858  0.07371938    -0.03300
C2162       C  0.93747199  0.54974885  0.07732015    -0.05900
C2163       C  0.92433187  0.55119864  0.09737963    -0.21000
C2164       C  0.92535680  0.53371747  0.11402331     0.24700
C2165       C  0.94081996  0.51535778  0.11081121    -0.18600
C2166       C  0.95393629  0.51393399  0.09074962    -0.08500
C2167       C  0.90956379  0.53499825  0.13404025    -0.18800
C2168       C  0.90274561  0.51637371  0.14604740    -0.23600
C2169       C  0.88438239  0.51706145  0.16379609     0.26800
C2170       C  0.87259176  0.49665659  0.16898624    -0.20400
C2171       C  0.85397017  0.49678930  0.18417063    -0.10000
C2172       C  0.84675065  0.51739533  0.19453434    -0.10600
C2173       C  0.85924677  0.53761767  0.19020452    -0.03500
C2174       C  0.87795875  0.53745106  0.17512356    -0.18600
H2175       H  0.93602066  0.56307054  0.06438850     0.10500
H2176       H  0.91280537  0.56566504  0.09958147     0.10500
H2177       H  0.94282242  0.50202492  0.12360520     0.10200
H2178       H  0.96535336  0.49942098  0.08827950     0.11300
H2179       H  0.90163457  0.55153532  0.13739606     0.11400
H2180       H  0.90915904  0.49952378  0.14127608     0.13300
H2181       H  0.87734072  0.48066125  0.16070842     0.09800
H2182       H  0.84480564  0.48086054  0.18718576     0.11900
H2183       H  0.85436263  0.55370411  0.19819781     0.08500
H2184       H  0.88716046  0.55336403  0.17236568     0.11300
C2185       C  0.15845686  0.52212284  0.82198933    -0.03300
C2186       C  0.15055192  0.54276335  0.83169410    -0.05900
C2187       C  0.13138133  0.54287509  0.84616894    -0.21000
C2188       C  0.11959175  0.52242100  0.85127974     0.24700
C2189       C  0.12738562  0.50174603  0.84134429    -0.18600
C2190       C  0.14667221  0.50162854  0.82697042    -0.08500
C2191       C  0.09976299  0.52367907  0.86743771    -0.18800
C2192       C  0.08912621  0.50529665  0.87677438    -0.23600
C2193       C  0.07157855  0.50720435  0.89527034     0.26800
C2194       C  0.05677826  0.48853754  0.89944804    -0.20400
C2195       C  0.04154069  0.48887371  0.91809650    -0.10000
C2196       C  0.04105777  0.50784749  0.93288757    -0.10600
C2197       C  0.05542494  0.52667852  0.92854441    -0.03500
C2198       C  0.07063027  0.52636358  0.91001786    -0.18600
H2199       H  0.15926887  0.55885732  0.82824560     0.10500
H2200       H  0.12585919  0.55905092  0.85357448     0.10500
H2201       H  0.11878369  0.48557949  0.84435433     0.10200
H2202       H  0.15218253  0.48547424  0.81953357     0.11300
H2203       H  0.09424429  0.54078528  0.87239888     0.11400
H2204       H  0.09366499  0.48806203  0.87143005     0.13300
H2205       H  0.05732666  0.47349568  0.88850435     0.09800
H2206       H  0.03060334  0.47415584  0.92136367     0.11900
H2207       H  0.05533534  0.54134998  0.93999782     0.08500
H2208       H  0.08221075  0.54075795  0.90804865     0.11300
C2209       C  0.18523970  0.51969899  0.15600481    -0.03300
C2210       C  0.17824878  0.49826585  0.14740011    -0.05900
C2211       C  0.16387038  0.49695964  0.12833159    -0.21000
C2212       C  0.15602809  0.51697993  0.11739383     0.24700
C2213       C  0.16400536  0.53845027  0.12524961    -0.18600
C2214       C  0.17845641  0.53975133  0.14435597    -0.08500
C2215       C  0.13854291  0.51436622  0.09898829    -0.18800
C2216       C  0.12670866  0.53182975  0.08945934    -0.23600
C2217       C  0.10684115  0.52798604  0.07402400     0.26800
C2218       C  0.10110670  0.54489869  0.05779099    -0.20400
C2219       C  0.08158065  0.54241194  0.04407033    -0.10000
C2220       C  0.06735326  0.52313131  0.04667622    -0.10600
C2221       C  0.07295008  0.50622513  0.06284340    -0.03500
C2222       C  0.09251947  0.50859690  0.07643229    -0.18600
H2223       H  0.18335734  0.48243224  0.15575357     0.10500
H2224       H  0.15822003  0.48017927  0.12258909     0.10500
H2225       H  0.15893056  0.55436598  0.11717106     0.10200
H2226       H  0.18375622  0.55653781  0.15037317     0.11300
H2227       H  0.13435541  0.49690782  0.09390412     0.11400
H2228       H  0.13107090  0.54951822  0.09322841     0.13300
H2229       H  0.11167078  0.56011757  0.05585835     0.09800
H2230       H  0.07727783  0.55570217  0.03176526     0.11900
H2231       H  0.06189829  0.49141910  0.06520920     0.08500
H2232       H  0.09586535  0.49563815  0.08934025     0.11300
C2233       C  0.45820589  0.32709612  0.87733683    -0.03300
C2234       C  0.44378776  0.32588497  0.85815244    -0.05900
C2235       C  0.42952165  0.30688905  0.85494593    -0.21000
C2236       C  0.42911640  0.28890593  0.87102760     0.24700
C2237       C  0.44413318  0.28979763  0.88995658    -0.18600
C2238       C  0.45860695  0.30879495  0.89304633    -0.08500
C2239       C  0.41235675  0.26997901  0.86756176    -0.18800
C2240       C  0.40254733  0.25835227  0.88505324    -0.23600
C2241       C  0.38289717  0.24211036  0.88244365     0.26800
C2242       C  0.37613162  0.22915769  0.90165513    -0.20400
C2243       C  0.35668469  0.21512238  0.90085484    -0.10000
C2244       C  0.34343687  0.21363070  0.88074213    -0.10600
C2245       C  0.35038548  0.22620378  0.86132734    -0.03500
C2246       C  0.36981417  0.24035724  0.86215155    -0.18600
H2247       H  0.44334298  0.33987193  0.84585855     0.10500
H2248       H  0.41823421  0.30656295  0.84018848     0.10500
H2249       H  0.44475229  0.27593395  0.90234586     0.10200
H2250       H  0.46978432  0.30945338  0.90786950     0.11300
H2251       H  0.40670277  0.26708999  0.85010472     0.11400
H2252       H  0.40828156  0.26175348  0.90244592     0.13300
H2253       H  0.38575345  0.23015065  0.91752493     0.09800
H2254       H  0.35198656  0.20553848  0.91612194     0.11900
H2255       H  0.34055747  0.22547376  0.84558311     0.08500
H2256       H  0.37390890  0.25025418  0.84699039     0.11300
C2257       C  0.57478643  0.35524502  0.87610671    -0.03300
C2258       C  0.59046193  0.36013858  0.85840612    -0.05900
C2259       C  0.61079718  0.34750306  0.85641579    -0.21000
C2260       C  0.61581932  0.32994829  0.87217827     0.24700
C2261       C  0.59988806  0.32494741  0.88975221    -0.18600
C2262       C  0.57960044  0.33756620  0.89171887    -0.08500
C2263       C  0.63690084  0.31601761  0.86893241    -0.18800
C2264       C  0.64725081  0.30498870  0.88639880    -0.23600
C2265       C  0.66585041  0.28776059  0.88344929     0.26800
C2266       C  0.67746538  0.28006670  0.90308593    -0.20400
C2267       C  0.69242739  0.26134317  0.90189220    -0.10000
C2268       C  0.69604529  0.24981721  0.88098165    -0.10600
C2269       C  0.68552040  0.25837741  0.86103670    -0.03500
C2270       C  0.67046976  0.27705284  0.86224569    -0.18600
H2271       H  0.58686271  0.37366067  0.84612298     0.10500
H2272       H  0.62262715  0.35141718  0.84254752     0.10500
H2273       H  0.60270837  0.31094270  0.90165836     0.10200
H2274       H  0.56753690  0.33347125  0.90533503     0.11300
H2275       H  0.64385723  0.31490434  0.85167204     0.11400
H2276       H  0.64133837  0.30813000  0.90382922     0.13300
H2277       H  0.67424452  0.28798122  0.91962621     0.09800
H2278       H  0.70039584  0.25532007  0.91757053     0.11900
H2279       H  0.68789432  0.24989560  0.84465220     0.08500
H2280       H  0.66165396  0.28206083  0.84672446     0.11300
C2281       C  0.31070197  0.54598586  0.87318412    -0.03300
C2282       C  0.32370185  0.54072249  0.85350459    -0.05900
C2283       C  0.33891923  0.52216116  0.85358569    -0.21000
C2284       C  0.34154018  0.50856726  0.87331812     0.24700
C2285       C  0.32767258  0.51305497  0.89261997    -0.18600
C2286       C  0.31248296  0.53164371  0.89256779    -0.08500
C2287       C  0.35936926  0.49038702  0.87326618    -0.18800
C2288       C  0.37013489  0.48331718  0.89245274    -0.23600
C2289       C  0.39043850  0.46794532  0.89191914     0.26800
C2290       C  0.40661586  0.46955972  0.90968491    -0.20400
C2291       C  0.42679304  0.45658390  0.90895722    -0.10000
C2292       C  0.43093958  0.44162744  0.89055736    -0.10600
C2293       C  0.41450110  0.43934977  0.87317539    -0.03500
C2294       C  0.39432012  0.45228865  0.87389330    -0.18600
H2295       H  0.32264473  0.55132224  0.83824262     0.10500
H2296       H  0.34924619  0.51888008  0.83841949     0.10500
H2297       H  0.32858056  0.50238482  0.90782419     0.10200
H2298       H  0.30236536  0.53495089  0.90785831     0.11300
H2299       H  0.36547786  0.48457044  0.85662737     0.11400
H2300       H  0.36556080  0.49086846  0.90888471     0.13300
H2301       H  0.40391535  0.48133812  0.92384149     0.09800
H2302       H  0.43930674  0.45836197  0.92257379     0.11900
H2303       H  0.41742855  0.42767345  0.85897934     0.08500
H2304       H  0.38188293  0.44996773  0.86033036     0.11300
C2305       C  0.54661761  0.47093637  0.88715779    -0.03300
C2306       C  0.54901764  0.48236600  0.90818944    -0.05900
C2307       C  0.56226072  0.50237989  0.90961131    -0.21000
C2308       C  0.57299371  0.51148658  0.88996645     0.24700
C2309       C  0.57043778  0.49995603  0.86884836    -0.18600
C2310       C  0.55735463  0.47983930  0.86749744    -0.08500
C2311       C  0.58803983  0.53198847  0.89238168    -0.18800
C2312       C  0.59227804  0.54672060  0.87498130    -0.23600
C2313       C  0.60964932  0.56548076  0.87591490     0.26800
C2314       C  0.61807302  0.57432233  0.85508615    -0.20400
C2315       C  0.63623261  0.59001648  0.85479174    -0.10000
C2316       C  0.64635610  0.59735461  0.87539666    -0.10600
C2317       C  0.63682145  0.58982770  0.89633755    -0.03500
C2318       C  0.61866056  0.57406261  0.89662499    -0.18600
H2319       H  0.54096134  0.47553972  0.92354671     0.10500
H2320       H  0.56421269  0.51073665  0.92610921     0.10500
H2321       H  0.57910617  0.50593756  0.85350356     0.10200
H2322       H  0.55585635  0.47100220  0.85120492     0.11300
H2323       H  0.59613282  0.53447867  0.90893290     0.11400
H2324       H  0.58366324  0.54410888  0.85868333     0.13300
H2325       H  0.61122985  0.56832094  0.83888222     0.09800
H2326       H  0.64289809  0.59568500  0.83834706     0.11900
H2327       H  0.64393446  0.59542137  0.91256217     0.08500
H2328       H  0.61210201  0.56847162  0.91309500     0.11300
C2329       C  0.31423707  0.24734083  0.12783907    -0.03300
C2330       C  0.32475943  0.25632115  0.10800310    -0.05900
C2331       C  0.33948858  0.27520347  0.10949353    -0.21000
C2332       C  0.34410325  0.28541582  0.13080047     0.24700
C2333       C  0.33247750  0.27732843  0.15043806    -0.18600
C2334       C  0.31779851  0.25843056  0.14896855    -0.08500
C2335       C  0.36155918  0.30396357  0.13187264    -0.18800
C2336       C  0.37336918  0.30891313  0.15110938    -0.23600
C2337       C  0.39271134  0.32552503  0.15210456     0.26800
C2338       C  0.40718116  0.32489574  0.17137358    -0.20400
C2339       C  0.42636302  0.33921047  0.17264543    -0.10000
C2340       C  0.43127759  0.35450523  0.15471677    -0.10600
C2341       C  0.41655507  0.35584096  0.13580030    -0.03500
C2342       C  0.39734263  0.34154269  0.13449065    -0.18600
H2343       H  0.32217914  0.24837243  0.09140117     0.10500
H2344       H  0.34792861  0.28134557  0.09404729     0.10500
H2345       H  0.33472068  0.28535891  0.16701786     0.10200
H2346       H  0.30966372  0.25221688  0.16453732     0.11300
H2347       H  0.36605153  0.31222216  0.11578711     0.11400
H2348       H  0.36996363  0.29915869  0.16663904     0.13300
H2349       H  0.40393569  0.31291021  0.18526927     0.09800
H2350       H  0.43764150  0.33807720  0.18736966     0.11900
H2351       H  0.42021208  0.36767440  0.12187581     0.08500
H2352       H  0.38637134  0.34320209  0.11965908     0.11300
C2353       C  0.45574017  0.47095092  0.15339738    -0.03300
C2354       C  0.45569291  0.48682831  0.17147726    -0.05900
C2355       C  0.44193795  0.50648680  0.17028747    -0.21000
C2356       C  0.42833226  0.51073665  0.15086903     0.24700
C2357       C  0.42847095  0.49472893  0.13273603    -0.18600
C2358       C  0.44207850  0.47498575  0.13403661    -0.08500
C2359       C  0.41292228  0.53104316  0.15082104    -0.18800
C2360       C  0.40600685  0.54154763  0.13139061    -0.23600
C2361       C  0.38822225  0.55994363  0.13047934     0.26800
C2362       C  0.37949943  0.56623798  0.10890695    -0.20400
C2363       C  0.36092192  0.58134526  0.10712447    -0.10000
C2364       C  0.35060459  0.59053234  0.12694535    -0.10600
C2365       C  0.36026283  0.58544684  0.14845664    -0.03500
C2366       C  0.37887454  0.57038500  0.15024234    -0.18600
H2367       H  0.46610036  0.48382584  0.18657650     0.10500
H2368       H  0.44187603  0.51840038  0.18457647     0.10500
H2369       H  0.41760182  0.49700382  0.11786605     0.10200
H2370       H  0.44184864  0.46273283  0.12003889     0.11300
H2371       H  0.40707951  0.53701768  0.16743940     0.11400
H2372       H  0.41290156  0.53563590  0.11507902     0.13300
H2373       H  0.38650061  0.55874019  0.09335918     0.09800
H2374       H  0.35409331  0.58505976  0.09024341     0.11900
H2375       H  0.35298299  0.59251341  0.16407007     0.08500
H2376       H  0.38534589  0.56678356  0.16721829     0.11300
C2377       C  0.64472165  0.20117372  0.13372342    -0.03300
C2378       C  0.63465512  0.20404151  0.15554003    -0.05900
C2379       C  0.61694976  0.21990373  0.15888346    -0.21000
C2380       C  0.60905508  0.23342417  0.14059802     0.24700
C2381       C  0.61814853  0.22963657  0.11847604    -0.18600
C2382       C  0.63582019  0.21367260  0.11509199    -0.08500
C2383       C  0.59182296  0.25164439  0.14542513    -0.18800
C2384       C  0.59068185  0.27124846  0.13313558    -0.23600
C2385       C  0.57524802  0.29092486  0.13854927     0.26800
C2386       C  0.57288222  0.30832191  0.12196519    -0.20400
C2387       C  0.55948615  0.32772531  0.12639054    -0.10000
C2388       C  0.54816840  0.33010232  0.14749841    -0.10600
C2389       C  0.55031566  0.31286951  0.16418231    -0.03500
C2390       C  0.56383711  0.29344230  0.15983185    -0.18600
H2391       H  0.64089723  0.19450397  0.17023894     0.10500
H2392       H  0.61000783  0.22224701  0.17601390     0.10500
H2393       H  0.61184286  0.23908795  0.10377652     0.10200
H2394       H  0.64300743  0.21171784  0.09802499     0.11300
H2395       H  0.58093284  0.24926376  0.16036883     0.11400
H2396       H  0.60210836  0.27343433  0.11852404     0.13300
H2397       H  0.58151933  0.30694008  0.10551019     0.09800
H2398       H  0.55788748  0.34091326  0.11333607     0.11900
H2399       H  0.54168114  0.31459444  0.18060230     0.08500
H2400       H  0.56554371  0.28085479  0.17336892     0.11300
C2401       C  0.69378061  0.54641001  0.12380350    -0.03300
C2402       C  0.68179701  0.53795988  0.10467644    -0.05900
C2403       C  0.66628968  0.51978484  0.10716326    -0.21000
C2404       C  0.66237308  0.50978148  0.12877298     0.24700
C2405       C  0.67543187  0.51725326  0.14761342    -0.18600
C2406       C  0.69087842  0.53543399  0.14515401    -0.08500
C2407       C  0.64412711  0.49212764  0.13103338    -0.18800
C2408       C  0.63295791  0.48788041  0.15090979    -0.23600
C2409       C  0.61279863  0.47235581  0.15268162     0.26800
C2410       C  0.59763541  0.47506814  0.17132251    -0.20400
C2411       C  0.57772758  0.46174689  0.17294394    -0.10000
C2412       C  0.57278111  0.44542596  0.15598351    -0.10600
C2413       C  0.58821622  0.44208957  0.13778069    -0.03500
C2414       C  0.60815002  0.45529941  0.13619032    -0.18600
H2415       H  0.68372819  0.54590595  0.08795193     0.10500
H2416       H  0.65668635  0.51409527  0.09230698     0.10500
H2417       H  0.67367028  0.50932052  0.16433551     0.10200
H2418       H  0.70014437  0.54123333  0.16017018     0.11300
H2419       H  0.63836389  0.48407099  0.11529070     0.11400
H2420       H  0.63738956  0.49757667  0.16617269     0.13300
H2421       H  0.60093578  0.48788826  0.18438633     0.09800
H2422       H  0.56600171  0.46436690  0.18719378     0.11900
H2423       H  0.58466424  0.42937918  0.12467609     0.08500
H2424       H  0.61975869  0.45199317  0.12204941     0.11300
C2425       C  0.87421833  0.25570763  0.30457331    -0.03300
C2426       C  0.85349751  0.26504607  0.31277498    -0.05900
C2427       C  0.85362682  0.28247271  0.32927663    -0.21000
C2428       C  0.87440720  0.29097839  0.33806626     0.24700
C2429       C  0.89519122  0.28248073  0.32893637    -0.18600
C2430       C  0.89505336  0.26508821  0.31237911    -0.08500
C2431       C  0.87329008  0.30773905  0.35739173    -0.18800
C2432       C  0.89156292  0.31504773  0.36956254    -0.23600
C2433       C  0.88933382  0.32964212  0.39037936     0.26800
C2434       C  0.90786082  0.34366517  0.39687343    -0.20400
C2435       C  0.90677898  0.35668762  0.41703865    -0.10000
C2436       C  0.88727031  0.35558698  0.43118384    -0.10600
C2437       C  0.86875619  0.34159538  0.42482718    -0.03500
C2438       C  0.86975336  0.32869592  0.40463821    -0.18600
H2439       H  0.83712214  0.25840427  0.30700870     0.10500
H2440       H  0.83734011  0.28879897  0.33576211     0.10500
H2441       H  0.91167585  0.28869871  0.33466052     0.10200
H2442       H  0.91136733  0.25845473  0.30630835     0.11300
H2443       H  0.85630446  0.31372196  0.36231746     0.11400
H2444       H  0.90883542  0.31026408  0.36453251     0.13300
H2445       H  0.92323352  0.34445755  0.38635622     0.09800
H2446       H  0.92127950  0.36729428  0.42184832     0.11900
H2447       H  0.85368119  0.34041199  0.43573457     0.08500
H2448       H  0.85547896  0.31748002  0.40070776     0.11300
C2449       C  0.87240111  0.20214561  0.65024336    -0.03300
C2450       C  0.85114472  0.20795346  0.64036366    -0.05900
C2451       C  0.85018108  0.22242348  0.62123214    -0.21000
C2452       C  0.87037001  0.23153325  0.61170682     0.24700
C2453       C  0.89171504  0.22446084  0.62052219    -0.18600
C2454       C  0.89270452  0.20992770  0.63961943    -0.08500
C2455       C  0.86843707  0.24909939  0.59334586    -0.18800
C2456       C  0.88369690  0.26634578  0.59103884    -0.23600
C2457       C  0.88101389  0.28578377  0.57472778     0.26800
C2458       C  0.90052195  0.29890437  0.56925916    -0.20400
C2459       C  0.89872287  0.31821714  0.55515847    -0.10000
C2460       C  0.87735488  0.32481705  0.54634952    -0.10600
C2461       C  0.85778563  0.31174849  0.55151143    -0.03500
C2462       C  0.85953515  0.29242374  0.56572432    -0.18600
H2463       H  0.83516216  0.20208022  0.64792307     0.10500
H2464       H  0.83355295  0.22737041  0.61451721     0.10500
H2465       H  0.90766174  0.23040419  0.61297061     0.10200
H2466       H  0.90938338  0.20544884  0.64650520     0.11300
H2467       H  0.85319220  0.24864253  0.58269877     0.11400
H2468       H  0.89873629  0.26671273  0.60202013     0.13300
H2469       H  0.91719523  0.29431435  0.57611004     0.09800
H2470       H  0.91394833  0.32825965  0.55135500     0.11900
H2471       H  0.84113610  0.31685299  0.54498189     0.08500
H2472       H  0.84395071  0.28328918  0.57009870     0.11300
C2473       C  0.88706777  0.47117838  0.46353280    -0.03300
C2474       C  0.90741273  0.47872296  0.45302869    -0.05900
C2475       C  0.90750831  0.49889054  0.43990035    -0.21000
C2476       C  0.88720036  0.51159761  0.43678636     0.24700
C2477       C  0.86705469  0.50441412  0.44821812    -0.18600
C2478       C  0.86701617  0.48432668  0.46140380    -0.08500
C2479       C  0.88755335  0.53177021  0.42103354    -0.18800
C2480       C  0.86872089  0.53919847  0.40980181    -0.23600
C2481       C  0.86904581  0.55726364  0.39169285     0.26800
C2482       C  0.85090863  0.55780696  0.37587046    -0.20400
C2483       C  0.85092486  0.57353147  0.35772853    -0.10000
C2484       C  0.86914341  0.58914011  0.35494780    -0.10600
C2485       C  0.88688951  0.58926409  0.37129727    -0.03500
C2486       C  0.88680266  0.57358050  0.38957058    -0.18600
H2487       H  0.92305909  0.46877049  0.45466497     0.10500
H2488       H  0.92330963  0.50417570  0.43154161     0.10500
H2489       H  0.85127098  0.51414859  0.44700670     0.10200
H2490       H  0.85123196  0.47875403  0.46960640     0.11300
H2491       H  0.90419130  0.53918833  0.41701823     0.11400
H2492       H  0.85253878  0.53029156  0.41239535     0.13300
H2493       H  0.83691213  0.54558877  0.37718813     0.09800
H2494       H  0.83697749  0.57294619  0.34547728     0.11900
H2495       H  0.90098875  0.60133658  0.36983905     0.08500
H2496       H  0.90067579  0.57430955  0.40185554     0.11300
C2497       C  0.86793045  0.43852042  0.57643564    -0.03300
C2498       C  0.84856024  0.45248584  0.57939040    -0.05900
C2499       C  0.84569919  0.46507583  0.59959883    -0.21000
C2500       C  0.86226349  0.46412317  0.61708862     0.24700
C2501       C  0.88117392  0.44916955  0.61445116    -0.18600
C2502       C  0.88397765  0.43653979  0.59421347    -0.08500
C2503       C  0.85956301  0.47988876  0.63702695    -0.18800
C2504       C  0.87706535  0.48624184  0.65074861    -0.23600
C2505       C  0.87573217  0.50561482  0.66740240     0.26800
C2506       C  0.89639411  0.51522722  0.67522120    -0.20400
C2507       C  0.89633013  0.53505383  0.68871185    -0.10000
C2508       C  0.87553045  0.54575561  0.69479952    -0.10600
C2509       C  0.85476644  0.53541124  0.68812356    -0.03500
C2510       C  0.85482815  0.51549737  0.67467759    -0.18600
H2511       H  0.83590622  0.45393687  0.56586256     0.10500
H2512       H  0.83085296  0.47620300  0.60124219     0.10500
H2513       H  0.89392672  0.44720005  0.62775582     0.10200
H2514       H  0.89886406  0.42552265  0.59221550     0.11300
H2515       H  0.84307488  0.48838780  0.63866779     0.11400
H2516       H  0.89392282  0.47876697  0.64807087     0.13300
H2517       H  0.91275014  0.50786472  0.67016768     0.09800
H2518       H  0.91266144  0.54237119  0.69374729     0.11900
H2519       H  0.83841182  0.54299955  0.69279328     0.08500
H2520       H  0.83844419  0.50825302  0.66988074     0.11300
C2521       C  0.43211956  0.77270235  0.44921589    -0.03300
C2522       C  0.42894777  0.75249343  0.43660196    -0.05900
C2523       C  0.41009017  0.75031520  0.42205230    -0.21000
C2524       C  0.39414842  0.76830836  0.41987499     0.24700
C2525       C  0.39741842  0.78858115  0.43272605    -0.18600
C2526       C  0.41623636  0.79066368  0.44737734    -0.08500
C2527       C  0.37533854  0.76568984  0.40296532    -0.18800
C2528       C  0.35653790  0.77914331  0.40235588    -0.23600
C2529       C  0.33933537  0.77753239  0.38378661     0.26800
C2530       C  0.32773830  0.79752790  0.37700987    -0.20400
C2531       C  0.31261738  0.79707457  0.35846299    -0.10000
C2532       C  0.30859744  0.77648708  0.34651728    -0.10600
C2533       C  0.31941479  0.75622145  0.35402794    -0.03500
C2534       C  0.33462318  0.75671908  0.37249152    -0.18600
H2535       H  0.44125492  0.73856880  0.43782374     0.10500
H2536       H  0.40809708  0.73462807  0.41224098     0.10500
H2537       H  0.38606677  0.80318022  0.43109741     0.10200
H2538       H  0.41876276  0.80647507  0.45685460     0.11300
H2539       H  0.37753085  0.75241540  0.39004556     0.11400
H2540       H  0.35416014  0.79270534  0.41488191     0.13300
H2541       H  0.33094789  0.81370507  0.38563152     0.09800
H2542       H  0.30443653  0.81295559  0.35322891     0.11900
H2543       H  0.31655071  0.74002192  0.34534782     0.08500
H2544       H  0.34265402  0.74080794  0.37781285     0.11300
C2545       C  0.54754369  0.78263601  0.42342426    -0.03300
C2546       C  0.56186808  0.80160743  0.41957224    -0.05900
C2547       C  0.57424210  0.80353600  0.39903889    -0.21000
C2548       C  0.57265765  0.78650514  0.38197724     0.24700
C2549       C  0.55783025  0.76768018  0.38578514    -0.18600
C2550       C  0.54546693  0.76579321  0.40635049    -0.08500
C2551       C  0.58740102  0.78891617  0.36109125    -0.18800
C2552       C  0.59040535  0.77241777  0.34507465    -0.23600
C2553       C  0.60829849  0.77386724  0.32681058     0.26800
C2554       C  0.61766550  0.75336503  0.31821483    -0.20400
C2555       C  0.63653092  0.75380782  0.30330589    -0.10000
C2556       C  0.64638621  0.77483824  0.29652281    -0.10600
C2557       C  0.63588993  0.79540319  0.30373300    -0.03500
C2558       C  0.61700200  0.79494444  0.31865902    -0.18600
H2559       H  0.56343976  0.81490732  0.43247965     0.10500
H2560       H  0.58535535  0.81828794  0.39661222     0.10500
H2561       H  0.55556420  0.75432008  0.37314597     0.10200
H2562       H  0.53424873  0.75116001  0.40900198     0.11300
H2563       H  0.59768044  0.80443877  0.35996658     0.11400
H2564       H  0.58139114  0.75620699  0.34660698     0.13300
H2565       H  0.61106113  0.73689124  0.32390313     0.09800
H2566       H  0.64394560  0.73761391  0.29788256     0.11900
H2567       H  0.64273190  0.81191526  0.29848921     0.08500
H2568       H  0.60960077  0.81112595  0.32406135     0.11300
C2569       C  0.45564477  0.78214879  0.56567604    -0.03300
C2570       C  0.43830342  0.79892190  0.56624417    -0.05900
C2571       C  0.42380908  0.80087460  0.58530261    -0.21000
C2572       C  0.42629762  0.78614301  0.60425417     0.24700
C2573       C  0.44425887  0.76987579  0.60406270    -0.18600
C2574       C  0.45868437  0.76781931  0.58485797    -0.08500
C2575       C  0.40957101  0.78827576  0.62353213    -0.18800
C2576       C  0.40496623  0.77129661  0.63865140    -0.23600
C2577       C  0.38590864  0.77262834  0.65571742     0.26800
C2578       C  0.37585538  0.75212906  0.66356752    -0.20400
C2579       C  0.35680698  0.75261270  0.67827132    -0.10000
C2580       C  0.34748365  0.77367401  0.68564287    -0.10600
C2581       C  0.35818515  0.79419085  0.67858158    -0.03500
C2582       C  0.37722560  0.79369506  0.66387600    -0.18600
H2583       H  0.43574315  0.81025380  0.55169403     0.10500
H2584       H  0.41027085  0.81366466  0.58502628     0.10500
H2585       H  0.44725887  0.75869226  0.61859177     0.10200
H2586       H  0.47204085  0.75484601  0.58481653     0.11300
H2587       H  0.39918449  0.80376820  0.62387275     0.11400
H2588       H  0.41386748  0.75497833  0.63713711     0.13300
H2589       H  0.38236087  0.73565972  0.65778669     0.09800
H2590       H  0.34917608  0.73645744  0.68353258     0.11900
H2591       H  0.35171170  0.81071874  0.68419841     0.08500
H2592       H  0.38501811  0.80985837  0.65897489     0.11300
C2593       C  0.57254817  0.77215051  0.54014325    -0.03300
C2594       C  0.57775773  0.75074249  0.54981814    -0.05900
C2595       C  0.59721624  0.74815289  0.56354165    -0.21000
C2596       C  0.61181725  0.76689432  0.56779072     0.24700
C2597       C  0.60655840  0.78837809  0.55785729    -0.18600
C2598       C  0.58709774  0.79091104  0.54405026    -0.08500
C2599       C  0.63119482  0.76357680  0.58401529    -0.18800
C2600       C  0.64935033  0.77785016  0.58573069    -0.23600
C2601       C  0.66692180  0.77553589  0.60405826     0.26800
C2602       C  0.67857509  0.79529236  0.61142041    -0.20400
C2603       C  0.69315049  0.79440694  0.63043011    -0.10000
C2604       C  0.69652003  0.77364260  0.64237518    -0.10600
C2605       C  0.68622065  0.75352158  0.63391751    -0.03500
C2606       C  0.67161639  0.75442780  0.61493799    -0.18600
H2607       H  0.56662870  0.73611577  0.54688615     0.10500
H2608       H  0.60075230  0.73148913  0.57108323     0.10500
H2609       H  0.61688645  0.80343660  0.56119656     0.10200
H2610       H  0.58311292  0.80757456  0.53674804     0.11300
H2611       H  0.62985827  0.74896904  0.59554031     0.11400
H2612       H  0.65071665  0.79262947  0.57443902     0.13300
H2613       H  0.67559789  0.81168640  0.60308584     0.09800
H2614       H  0.70110593  0.81018212  0.63624951     0.11900
H2615       H  0.68872779  0.73716655  0.64245614     0.08500
H2616       H  0.66382473  0.73860296  0.60912687     0.11300
C2617       C  0.12440979  0.32704552  0.44560789    -0.03300
C2618       C  0.13971290  0.32650432  0.42694751    -0.05900
C2619       C  0.14174616  0.30672234  0.41349295    -0.21000
C2620       C  0.12866581  0.28701449  0.41848187     0.24700
C2621       C  0.11358313  0.28748932  0.43744491    -0.18600
C2622       C  0.11129252  0.30739880  0.45064059    -0.08500
C2623       C  0.13132145  0.26656381  0.40338879    -0.18800
C2624       C  0.11657410  0.24868844  0.40296311    -0.23600
C2625       C  0.11823808  0.23015295  0.38557609     0.26800
C2626       C  0.09798406  0.21967673  0.37784035    -0.20400
C2627       C  0.09853412  0.20446874  0.35928691    -0.10000
C2628       C  0.11944974  0.19923566  0.34833828    -0.10600
C2629       C  0.13994241  0.20821877  0.35740086    -0.03500
C2630       C  0.13935535  0.22353202  0.37582820    -0.18600
H2631       H  0.15008158  0.34141988  0.42281287     0.10500
H2632       H  0.15354404  0.30685743  0.39905711     0.10500
H2633       H  0.10358892  0.27263275  0.44238811     0.10200
H2634       H  0.09934046  0.30744469  0.46494553     0.11300
H2635       H  0.14522041  0.26712395  0.39090996     0.11400
H2636       H  0.10146006  0.24867950  0.41387531     0.13300
H2637       H  0.08154957  0.22417752  0.38539245     0.09800
H2638       H  0.08248201  0.19754884  0.35296306     0.11900
H2639       H  0.15640976  0.20427148  0.34963308     0.08500
H2640       H  0.15540432  0.23052316  0.38203796     0.11300
C2641       C  0.11193055  0.44482457  0.42535032    -0.03300
C2642       C  0.09309210  0.45962209  0.42321672    -0.05900
C2643       C  0.09195601  0.47505442  0.40498060    -0.21000
C2644       C  0.10956768  0.47597020  0.38846000     0.24700
C2645       C  0.12807888  0.46039320  0.39015473    -0.18600
C2646       C  0.12922059  0.44496322  0.40854362    -0.08500
C2647       C  0.10792850  0.49404435  0.37053445    -0.18800
C2648       C  0.12391770  0.49825610  0.35430854    -0.23600
C2649       C  0.12212774  0.51803207  0.33830813     0.26800
C2650       C  0.14231452  0.52727916  0.32888284    -0.20400
C2651       C  0.14145538  0.54694022  0.31513112    -0.10000
C2652       C  0.12031977  0.55771119  0.31050911    -0.10600
C2653       C  0.10002945  0.54785993  0.31911253    -0.03500
C2654       C  0.10087849  0.52812393  0.33267998    -0.18600
H2655       H  0.07954069  0.45956925  0.43602376     0.10500
H2656       H  0.07743333  0.48667801  0.40406481     0.10500
H2657       H  0.14190807  0.46014610  0.37775800     0.10200
H2658       H  0.14382831  0.43350573  0.40999020     0.11300
H2659       H  0.09313933  0.50532893  0.37175435     0.11400
H2660       H  0.13953489  0.48816020  0.35353808     0.13300
H2661       H  0.15886276  0.51966239  0.33270593     0.09800
H2662       H  0.15742335  0.55399857  0.30862936     0.11900
H2663       H  0.08344383  0.55550060  0.31554932     0.08500
H2664       H  0.08480687  0.52092944  0.33865871     0.11300
C2665       C  0.11009094  0.34742746  0.56144391    -0.03300
C2666       C  0.09489580  0.32874971  0.56164920    -0.05900
C2667       C  0.09368397  0.31438201  0.58078783    -0.21000
C2668       C  0.10778351  0.31836767  0.59986750     0.24700
C2669       C  0.12254950  0.33752744  0.59986386    -0.18600
C2670       C  0.12373394  0.35190475  0.58070916    -0.08500
C2671       C  0.10655232  0.30220596  0.61941869    -0.18800
C2672       C  0.12438003  0.29825173  0.63352432    -0.23600
C2673       C  0.12356003  0.28065965  0.65187671     0.26800
C2674       C  0.14407516  0.27017760  0.65889075    -0.20400
C2675       C  0.14375903  0.25268160  0.67534404    -0.10000
C2676       C  0.12287523  0.24549346  0.68522119    -0.10600
C2677       C  0.10245009  0.25663168  0.67877661    -0.03500
C2678       C  0.10278301  0.27408643  0.66236550    -0.18600
H2679       H  0.08412797  0.32525341  0.54691698     0.10500
H2680       H  0.08202287  0.29986639  0.58053028     0.10500
H2681       H  0.13306579  0.34154839  0.61460925     0.10200
H2682       H  0.13536543  0.36644585  0.58080805     0.11300
H2683       H  0.09106918  0.29191147  0.62100001     0.11400
H2684       H  0.14069343  0.30678701  0.63043813     0.13300
H2685       H  0.16032383  0.27517358  0.65123601     0.09800
H2686       H  0.15983462  0.24461311  0.68007876     0.11900
H2687       H  0.08609866  0.25177176  0.68626920     0.08500
H2688       H  0.08673905  0.28241478  0.65805415     0.11300
C2689       C  0.10652957  0.46434896  0.54293581    -0.03300
C2690       C  0.08929554  0.48110415  0.54107227    -0.05900
C2691       C  0.08885056  0.49977915  0.55621767    -0.21000
C2692       C  0.10576445  0.50211678  0.57323362     0.24700
C2693       C  0.12283213  0.48506942  0.57517140    -0.18600
C2694       C  0.12319199  0.46640898  0.56013106    -0.08500
C2695       C  0.10449447  0.52179656  0.58943563    -0.18800
C2696       C  0.12302154  0.53012619  0.60050185    -0.23600
C2697       C  0.12196001  0.54855316  0.61814721     0.26800
C2698       C  0.14229655  0.56009940  0.62403695    -0.20400
C2699       C  0.14246717  0.57628274  0.64178269    -0.10000
C2700       C  0.12224683  0.58126356  0.65404934    -0.10600
C2701       C  0.10179578  0.57000072  0.64790820    -0.03500
C2702       C  0.10165732  0.55371997  0.63028618    -0.18600
H2703       H  0.07615595  0.47960335  0.52802726     0.10500
H2704       H  0.07532956  0.51247932  0.55460003     0.10500
H2705       H  0.13563113  0.48574915  0.58858106     0.10200
H2706       H  0.13643619  0.45344349  0.56194837     0.11300
H2707       H  0.08786035  0.52990139  0.59177421     0.11400
H2708       H  0.13991900  0.52337510  0.59632721     0.13300
H2709       H  0.15820042  0.55636772  0.61505711     0.09800
H2710       H  0.15847638  0.58474578  0.64601076     0.11900
H2711       H  0.08595855  0.57325791  0.65717257     0.08500
H2712       H  0.08576837  0.54475614  0.62684587     0.11300
C2713       C  0.35521612  0.02350285  0.30355937    -0.03300
C2714       C  0.36592232  0.04438167  0.30940349    -0.05900
C2715       C  0.38509266  0.04461681  0.32383314    -0.21000
C2716       C  0.39384171  0.02405555  0.33289827     0.24700
C2717       C  0.38425917  0.00307601  0.32564467    -0.18600
C2718       C  0.36514118  0.00281687  0.31116045    -0.08500
C2719       C  0.41214895  0.02514635  0.35065095    -0.18800
C2720       C  0.41380086  0.00939836  0.36758685    -0.23600
C2721       C  0.42974520  0.01111256  0.38746161     0.26800
C2722       C  0.42488407  0.99786626  0.40706675    -0.20400
C2723       C  0.43903120  0.99887792  0.42635857    -0.10000
C2724       C  0.45844754  0.01316610  0.42653471    -0.10600
C2725       C  0.46354365  0.02633605  0.40690553    -0.03500
C2726       C  0.44942831  0.02522860  0.38746774    -0.18600
H2727       H  0.35897950  0.06064150  0.30357255     0.10500
H2728       H  0.39241476  0.06098843  0.32880641     0.10500
H2729       H  0.39118538  0.98682965  0.33148144     0.10200
H2730       H  0.35762861  0.98640052  0.30667261     0.11300
H2731       H  0.42277207  0.04045867  0.35108164     0.11400
H2732       H  0.40158496  0.99529546  0.36799124     0.13300
H2733       H  0.40991668  0.98679762  0.40755587     0.09800
H2734       H  0.43477737  0.98854359  0.44126976     0.11900
H2735       H  0.47841596  0.03752830  0.40667878     0.08500
H2736       H  0.45412803  0.03529898  0.37255835     0.11300
C2737       C  0.43508267  0.02535633  0.54343887    -0.03300
C2738       C  0.41524363  0.01181340  0.54148259    -0.05900
C2739       C  0.39649165  0.01546000  0.55618048    -0.21000
C2740       C  0.39736559  0.03269462  0.57317620     0.24700
C2741       C  0.41691042  0.04677882  0.57437437    -0.18600
C2742       C  0.43563135  0.04307646  0.55975264    -0.08500
C2743       C  0.37863858  0.03623447  0.59030370    -0.18800
C2744       C  0.36442682  0.01926622  0.59716462    -0.23600
C2745       C  0.34788338  0.02143769  0.61660780     0.26800
C2746       C  0.34068261  0.00126613  0.62768357    -0.20400
C2747       C  0.32570770  0.00218693  0.64641847    -0.10000
C2748       C  0.31733381  0.02336989  0.65456508    -0.10600
C2749       C  0.32418823  0.04363920  0.64325643    -0.03500
C2750       C  0.33925438  0.04270280  0.62440786    -0.18600
H2751       H  0.41447724  0.99816281  0.52886796     0.10500
H2752       H  0.38144824  0.00473949  0.55418711     0.10500
H2753       H  0.41797478  0.06028219  0.58712679     0.10200
H2754       H  0.45076560  0.05378216  0.56140739     0.11300
H2755       H  0.37816880  0.05265611  0.59911273     0.11400
H2756       H  0.36637518  0.00228625  0.58969503     0.13300
H2757       H  0.34694956  0.98465877  0.62202635     0.09800
H2758       H  0.32084685  0.98618042  0.65461363     0.11900
H2759       H  0.31787253  0.06021464  0.64890872     0.08500
H2760       H  0.34386708  0.05861010  0.61593896     0.11300
C2761       C  0.57526263  0.01670213  0.45151709    -0.03300
C2762       C  0.57648403  0.03355438  0.43432994    -0.05900
C2763       C  0.59652500  0.03633188  0.42139198    -0.21000
C2764       C  0.61584061  0.02238464  0.42534038     0.24700
C2765       C  0.61465232  0.00560178  0.44281878    -0.18600
C2766       C  0.59448347  0.00274098  0.45566408    -0.08500
C2767       C  0.63647161  0.02601037  0.41055399    -0.18800
C2768       C  0.65511861  0.01223803  0.41017896    -0.23600
C2769       C  0.67405077  0.01508615  0.39319646     0.26800
C2770       C  0.68688905  0.99569489  0.38678148    -0.20400
C2771       C  0.70302463  0.99703859  0.36899855    -0.10000
C2772       C  0.70680143  0.01790995  0.35736659    -0.10600
C2773       C  0.69519208  0.03770931  0.36496319    -0.03500
C2774       C  0.67902857  0.03634356  0.38271584    -0.18600
H2775       H  0.56190461  0.04464555  0.43101466     0.10500
H2776       H  0.59689195  0.04943918  0.40815714     0.10500
H2777       H  0.62908331  0.99467265  0.44685521     0.10200
H2778       H  0.59387860  0.98971102  0.46896389     0.11300
H2779       H  0.63548860  0.04007983  0.39834461     0.11400
H2780       H  0.65583991  0.99717932  0.42110485     0.13300
H2781       H  0.68371050  0.97920495  0.39486267     0.09800
H2782       H  0.71190705  0.98151318  0.36381644     0.11900
H2783       H  0.69790414  0.05414483  0.35662762     0.08500
H2784       H  0.67027652  0.05191724  0.38787901     0.11300
C2785       C  0.55016526  0.00947768  0.56845426    -0.03300
C2786       C  0.56827694  0.99359745  0.56987163    -0.05900
C2787       C  0.58161296  0.99213147  0.58975715    -0.21000
C2788       C  0.57717943  0.00653349  0.60862006     0.24700
C2789       C  0.55872703  0.02216034  0.60730874    -0.18600
C2790       C  0.54556779  0.02377959  0.58732863    -0.08500
C2791       C  0.59221215  0.00472228  0.62918614    -0.18800
C2792       C  0.59454899  0.02164962  0.64482491    -0.23600
C2793       C  0.61148203  0.02080934  0.66386561     0.26800
C2794       C  0.61984857  0.04159067  0.67276359    -0.20400
C2795       C  0.63733752  0.04167129  0.68916164    -0.10000
C2796       C  0.64673149  0.02089697  0.69716889    -0.10600
C2797       C  0.63722151  0.00006147  0.68942081    -0.03500
C2798       C  0.61978668  0.99999773  0.67295626    -0.18600
H2799       H  0.57209787  0.98236289  0.55553016     0.10500
H2800       H  0.59561191  0.97985958  0.59030906     0.10500
H2801       H  0.55419815  0.03307513  0.62163549     0.10200
H2802       H  0.53171090  0.03619445  0.58659500     0.11300
H2803       H  0.60302828  0.98956800  0.63042183     0.11400
H2804       H  0.58534980  0.03769441  0.64251155     0.13300
H2805       H  0.61346434  0.05786653  0.66634157     0.09800
H2806       H  0.64403455  0.05803862  0.69492554     0.11900
H2807       H  0.64376062  0.98371668  0.69547701     0.08500
H2808       H  0.61309773  0.98363048  0.66724575     0.11300
loop_ 
_geom_bond_atom_site_label_1 
_geom_bond_atom_site_label_2 
_geom_bond_distance 
_geom_bond_site_symmetry_2 
_ccdc_geom_bond_type 
N1            C6   1.353       .  A
N1            C5   1.353       .  A
N1           H33   1.041       .  S
N2            C9   1.352       .  A
N2           C10   1.350       .  A
N3            C8   1.353       .  A
N3            C7   1.354       .  A
N3           H34   1.040       .  S
N4           C11   1.351       .  A
N4           C12   1.352       .  A
C5           C13   1.386       .  A
C5           C21   1.413       .  A
C6           C22   1.415       .  A
C6           C14   1.388       .  A
C7           C15   1.387       .  A
C7           C24   1.415       .  A
C8           C23   1.416       .  A
C8           C16   1.387       .  A
C9           C21   1.413       .  A
C9           C17   1.386       .  A
C10          C24   1.412       .  A
C10          C18   1.386       .  A
C11          C19   1.386       .  A
C11          C22   1.413       .  A
C12          C20   1.387       .  A
C12          C23   1.415       .  A
C13          C14   1.376       .  A
C13          H25   1.082       .  S
C14          H26   1.082       .  S
C15          C16   1.377       .  A
C15          H27   1.082       .  S
C16          H28   1.082       .  S
C17          C18   1.373       .  A
C17          H29   1.082   1_545  S
C18          H30   1.082       .  S
C19          C20   1.374       .  A
C19          H31   1.082   1_545  S
C20          H32   1.082   1_545  S
C21        C2785   1.491       .  S
C22        C2761   1.487       .  S
C23        C2724   1.492       .  S
C24        C2737   1.487       .  S
N35          C40   1.351       .  A
N35          C39   1.349       .  A
N35          H67   1.040       .  S
N36          C43   1.349       .  A
N36          C44   1.350       .  A
N37          C42   1.351       .  A
N37          C41   1.354       .  A
N37          H68   1.040       .  S
N38          C45   1.352       .  A
N38          C46   1.348       .  A
C39          C47   1.388       .  A
C39          C55   1.410       .  A
C40          C56   1.409       .  A
C40          C48   1.386       .  A
C41          C49   1.387       .  A
C41          C58   1.415       .  A
C42          C57   1.412       .  A
C42          C50   1.387       .  A
C43          C55   1.409       .  A
C43          C51   1.386       .  A
C44          C58   1.411       .  A
C44          C52   1.386       .  A
C45          C53   1.385       .  A
C45          C56   1.409       .  A
C46          C54   1.388       .  A
C46          C57   1.411       .  A
C47          C48   1.375       .  A
C47          H59   1.082       .  S
C48          H60   1.082       .  S
C49          C50   1.376       .  A
C49          H61   1.082       .  S
C50          H62   1.082       .  S
C51          C52   1.372       .  A
C51          H63   1.082       .  S
C52          H64   1.082       .  S
C53          C54   1.372       .  A
C53          H65   1.082       .  S
C54          H66   1.082       .  S
C55        C2665   1.476       .  S
C56        C2689   1.483       .  S
C57        C2641   1.478       .  S
C58        C2617   1.490       .  S
N69          C74   1.352       .  A
N69          C73   1.356       .  A
N69         H101   1.038       .  S
N70          C77   1.350       .  A
N70          C78   1.350       .  A
N71          C76   1.353       .  A
N71          C75   1.350       .  A
N71         H102   1.038       .  S
N72          C79   1.350       .  A
N72          C80   1.352       .  A
C73          C81   1.387       .  A
C73          C89   1.418       .  A
C74          C90   1.414       .  A
C74          C82   1.386       .  A
C75          C83   1.387       .  A
C75          C92   1.410       .  A
C76          C91   1.413       .  A
C76          C84   1.388       .  A
C77          C89   1.413       .  A
C77          C85   1.387       .  A
C78          C92   1.409       .  A
C78          C86   1.386       .  A
C79          C87   1.387       .  A
C79          C90   1.412       .  A
C80          C88   1.385       .  A
C80          C91   1.413       .  A
C81          C82   1.376       .  A
C81          H93   1.082       .  S
C82          H94   1.082       .  S
C83          C84   1.374       .  A
C83          H95   1.082       .  S
C84          H96   1.082       .  S
C85          C86   1.372       .  A
C85          H97   1.082       .  S
C86          H98   1.082       .  S
C87          C88   1.374       .  A
C87          H99   1.082       .  S
C88         H100   1.082       .  S
C89        C2569   1.492       .  S
C90        C2593   1.479       .  S
C91        C2545   1.485       .  S
C92        C2521   1.474       .  S
N103        C108   1.353       .  A
N103        C107   1.354       .  A
N103        H135   1.039       .  S
N104        C111   1.350       .  A
N104        C112   1.351       .  A
N105        C110   1.351       .  A
N105        C109   1.351       .  A
N105        H136   1.038       .  S
N106        C113   1.350       .  A
N106        C114   1.350       .  A
C107        C115   1.387       .  A
C107        C123   1.414       .  A
C108        C124   1.415       .  A
C108        C116   1.387       .  A
C109        C117   1.387       .  A
C109        C126   1.411       .  A
C110        C125   1.411       .  A
C110        C118   1.387       .  A
C111        C123   1.411       .  A
C111        C119   1.386       .  A
C112        C126   1.411       .  A
C112        C120   1.386       .  A
C113        C121   1.386       .  A
C113        C124   1.410       .  A
C114        C122   1.386       .  A
C114        C125   1.412       .  A
C115        C116   1.376       .  A
C115        H127   1.082       .  S
C116        H128   1.082       .  S
C117        C118   1.375       .  A
C117        H129   1.082       .  S
C118        H130   1.082       .  S
C119        C120   1.373       .  A
C119        H131   1.082       .  S
C120        H132   1.082       .  S
C121        C122   1.374       .  A
C121        H133   1.082       .  S
C122        H134   1.082       .  S
C123       C2436   1.483       .  S
C124       C2473   1.481       .  S
C125       C2497   1.480       .  S
C126       C2460   1.479       .  S
N137        C142   1.351       .  A
N137        C141   1.352       .  A
N137        H169   1.038       .  S
N138        C145   1.351       .  A
N138        C146   1.349       .  A
N139        C144   1.351       .  A
N139        C143   1.351       .  A
N139        H170   1.038       .  S
N140        C147   1.350       .  A
N140        C148   1.351       .  A
C141        C149   1.386       .  A
C141        C157   1.411       .  A
C142        C158   1.414       .  A
C142        C150   1.388       .  A
C143        C151   1.387       .  A
C143        C160   1.412       .  A
C144        C159   1.412       .  A
C144        C152   1.387       .  A
C145        C157   1.409       .  A
C145        C153   1.385       .  A
C146        C160   1.411       .  A
C146        C154   1.387       .  A
C147        C155   1.387       .  A
C147        C158   1.413       .  A
C148        C156   1.385       .  A
C148        C159   1.410       .  A
C149        C150   1.375       .  A
C149        H161   1.082       .  S
C150        H162   1.082       .  S
C151        C152   1.376       .  A
C151        H163   1.082       .  S
C152        H164   1.082       .  S
C153        C154   1.371       .  A
C153        H165   1.082       .  S
C154        H166   1.082       .  S
C155        C156   1.372       .  A
C155        H167   1.082       .  S
C156        H168   1.082       .  S
C157       C2388   1.479       .  S
C158       C2412   1.480       .  S
C159       C2353   1.480       .  S
C160       C2340   1.476       .  S
N171        C176   1.352       .  A
N171        C175   1.353       .  A
N171        H203   1.038       .  S
N172        C179   1.352       .  A
N172        C180   1.350       .  A
N173        C178   1.355       .  A
N173        C177   1.352       .  A
N173        H204   1.038       .  S
N174        C181   1.350       .  A
N174        C182   1.351       .  A
C175        C183   1.386       .  A
C175        C191   1.411       .  A
C176        C192   1.414       .  A
C176        C184   1.388       .  A
C177        C185   1.388       .  A
C177        C194   1.415       .  A
C178        C193   1.414       .  A
C178        C186   1.386       .  A
C179        C191   1.411       .  A
C179        C187   1.385       .  A
C180        C194   1.413       .  A
C180        C188   1.387       .  A
C181        C189   1.387       .  A
C181        C192   1.411       .  A
C182        C190   1.386       .  A
C182        C193   1.411       .  A
C183        C184   1.375       .  A
C183        H195   1.082       .  S
C184        H196   1.082       .  S
C185        C186   1.375       .  A
C185        H197   1.082       .  S
C186        H198   1.082       .  S
C187        C188   1.371       .  A
C187        H199   1.082       .  S
C188        H200   1.082       .  S
C189        C190   1.371       .  A
C189        H201   1.082       .  S
C190        H202   1.082       .  S
C191       C2305   1.483       .  S
C192       C2292   1.480       .  S
C193       C2233   1.484       .  S
C194       C2257   1.481       .  S
N205        C210   1.350   1_455  A
N205        C209   1.352       .  A
N205        H237   1.038   1_455  S
N206        C213   1.351   1_556  A
N206        C214   1.348       .  A
N207        C212   1.354       .  A
N207        C211   1.354   1_655  A
N207        H238   1.038       .  S
N208        C215   1.352       .  A
N208        C216   1.352   1_554  A
C209        C217   1.387       .  A
C209        C225   1.412       .  A
C210        C226   1.411       .  A
C210        C218   1.387   1_655  A
C211        C219   1.387   1_455  A
C211        C228   1.415       .  A
C212        C227   1.416       .  A
C212        C220   1.387       .  A
C213        C225   1.409       .  A
C213        C221   1.385       .  A
C214        C228   1.412       .  A
C214        C222   1.388       .  A
C215        C223   1.387       .  A
C215        C226   1.414       .  A
C216        C224   1.385   1_556  A
C216        C227   1.412       .  A
C217        C218   1.374       .  A
C217        H229   1.082       .  S
C218        H230   1.082   1_455  S
C219        C220   1.375       .  A
C219        H231   1.082       .  S
C220        H232   1.082       .  S
C221        C222   1.372   1_554  A
C221        H233   1.082       .  S
C222        H234   1.082       .  S
C223        C224   1.372       .  A
C223        H235   1.082       .  S
C224        H236   1.082       .  S
C225       C2220   1.480       .  S
C226       C2161   1.479       .  S
C227       C2137   1.485       .  S
C228       C2196   1.480       .  S
N239        C244   1.353       .  A
N239        C243   1.354       .  A
N239        H271   1.037       .  S
N240        C247   1.352       .  A
N240        C248   1.352   1_554  A
N241        C246   1.354       .  A
N241        C245   1.353       .  A
N241        H272   1.036       .  S
N242        C249   1.350       .  A
N242        C250   1.351       .  A
C243        C251   1.385       .  A
C243        C259   1.412       .  A
C244        C260   1.416       .  A
C244        C252   1.388       .  A
C245        C253   1.389       .  A
C245        C262   1.416       .  A
C246        C261   1.414       .  A
C246        C254   1.385       .  A
C247        C259   1.413       .  A
C247        C255   1.386       .  A
C248        C262   1.414       .  A
C248        C256   1.387   1_556  A
C249        C257   1.386       .  A
C249        C260   1.411   1_556  A
C250        C258   1.387       .  A
C250        C261   1.412       .  A
C251        C252   1.375       .  A
C251        H263   1.082       .  S
C252        H264   1.082       .  S
C253        C254   1.374       .  A
C253        H265   1.081       .  S
C254        H266   1.082       .  S
C255        C256   1.370       .  A
C255        H267   1.082       .  S
C256        H268   1.082   1_554  S
C257        C258   1.372       .  A
C257        H269   1.082       .  S
C258        H270   1.082       .  S
C259       C2124   1.486       .  S
C260       C2100   1.483       .  S
C261       C2041   1.484       .  S
C262       C2065   1.482       .  S
N273        C278   1.353       .  A
N273        C277   1.353   1_655  A
N273        H305   1.037       .  S
N274        C281   1.351       .  A
N274        C282   1.351   1_554  A
N275        C280   1.353       .  A
N275        C279   1.350   1_655  A
N275        H306   1.037       .  S
N276        C283   1.349       .  A
N276        C284   1.350   1_554  A
C277        C285   1.387   1_455  A
C277        C293   1.414       .  A
C278        C294   1.414       .  A
C278        C286   1.387       .  A
C279        C287   1.386       .  A
C279        C296   1.410       .  A
C280        C295   1.413       .  A
C280        C288   1.387       .  A
C281        C293   1.412       .  A
C281        C289   1.387       .  A
C282        C296   1.410       .  A
C282        C290   1.386   1_556  A
C283        C291   1.387       .  A
C283        C294   1.410       .  A
C284        C292   1.386       .  A
C284        C295   1.411       .  A
C285        C286   1.374       .  A
C285        H297   1.082   1_655  S
C286        H298   1.082       .  S
C287        C288   1.373   1_455  A
C287        H299   1.083       .  S
C288        H300   1.082       .  S
C289        C290   1.372       .  A
C289        H301   1.082       .  S
C290        H302   1.082   1_554  S
C291        C292   1.371   1_554  A
C291        H303   1.082       .  S
C292        H304   1.082       .  S
C293       C2017   1.481       .  S
C294       C1993   1.477       .  S
C295       C1956   1.483       .  S
C296       C1980   1.476       .  S
N307        C312   1.353       .  A
N307        C311   1.350       .  A
N307        H339   1.039       .  S
N308        C315   1.351       .  A
N308        C316   1.351   1_554  A
N309        C314   1.352       .  A
N309        C313   1.352       .  A
N309        H340   1.039       .  S
N310        C317   1.349       .  A
N310        C318   1.348   1_554  A
C311        C319   1.388       .  A
C311        C327   1.411       .  A
C312        C328   1.411       .  A
C312        C320   1.386       .  A
C313        C321   1.388       .  A
C313        C330   1.414       .  A
C314        C329   1.411       .  A
C314        C322   1.386       .  A
C315        C327   1.411       .  A
C315        C323   1.386       .  A
C316        C330   1.413       .  A
C316        C324   1.386   1_556  A
C317        C325   1.386       .  A
C317        C328   1.408       .  A
C318        C326   1.387       .  A
C318        C329   1.408       .  A
C319        C320   1.373       .  A
C319        H331   1.082       .  S
C320        H332   1.082       .  S
C321        C322   1.375       .  A
C321        H333   1.082       .  S
C322        H334   1.082       .  S
C323        C324   1.373       .  A
C323        H335   1.082       .  S
C324        H336   1.082   1_554  S
C325        C326   1.371   1_554  A
C325        H337   1.082       .  S
C326        H338   1.082       .  S
C327       C1873   1.478       .  S
C328       C1921   1.481       .  S
C329       C1897   1.475       .  S
C330       C1849   1.484       .  S
N341        C346   1.353   1_655  A
N341        C345   1.352       .  A
N341        H373   1.038       .  S
N342        C349   1.351       .  A
N342        C350   1.351       .  A
N343        C348   1.353       .  A
N343        C347   1.353   1_455  A
N343        H374   1.038   1_455  S
N344        C351   1.350       .  A
N344        C352   1.351       .  A
C345        C353   1.387       .  A
C345        C361   1.413       .  A
C346        C362   1.414       .  A
C346        C354   1.387   1_455  A
C347        C355   1.387   1_655  A
C347        C364   1.415       .  A
C348        C363   1.415       .  A
C348        C356   1.387       .  A
C349        C361   1.410       .  A
C349        C357   1.385       .  A
C350        C364   1.413       .  A
C350        C358   1.387       .  A
C351        C359   1.387       .  A
C351        C362   1.412       .  A
C352        C360   1.386       .  A
C352        C363   1.410       .  A
C353        C354   1.374       .  A
C353        H365   1.082       .  S
C354        H366   1.082       .  S
C355        C356   1.374       .  A
C355        H367   1.082   1_455  S
C356        H368   1.082       .  S
C357        C358   1.372       .  A
C357        H369   1.082       .  S
C358        H370   1.082       .  S
C359        C360   1.371       .  A
C359        H371   1.082       .  S
C360        H372   1.082       .  S
C361       C1788   1.479       .  S
C362       C1825   1.482       .  S
C363       C1801   1.483       .  S
C364       C1753   1.484       .  S
N375        C380   1.352       .  A
N375        C379   1.353   1_455  A
N375        H407   1.039       .  S
N376        C383   1.350       .  A
N376        C384   1.350       .  A
N377        C382   1.352   1_655  A
N377        C381   1.352       .  A
N377        H408   1.039       .  S
N378        C385   1.351       .  A
N378        C386   1.350       .  A
C379        C387   1.387   1_655  A
C379        C395   1.413       .  A
C380        C396   1.413       .  A
C380        C388   1.387       .  A
C381        C389   1.387       .  A
C381        C398   1.413       .  A
C382        C397   1.411       .  A
C382        C390   1.387   1_455  A
C383        C395   1.411       .  A
C383        C391   1.387       .  A
C384        C398   1.410       .  A
C384        C392   1.386       .  A
C385        C393   1.386       .  A
C385        C396   1.411       .  A
C386        C394   1.387       .  A
C386        C397   1.411       .  A
C387        C388   1.375       .  A
C387        H399   1.082       .  S
C388        H400   1.082       .  S
C389        C390   1.374       .  A
C389        H401   1.082       .  S
C390        H402   1.082       .  S
C391        C392   1.372       .  A
C391        H403   1.082       .  S
C392        H404   1.082       .  S
C393        C394   1.373       .  A
C393        H405   1.082       .  S
C394        H406   1.082       .  S
C395       C1705   1.482       .  S
C396       C1729   1.482       .  S
C397       C1692   1.478       .  S
C398       C1657   1.482       .  S
C409        N410   1.371       .  A
C409        N414   1.358       .  A
C409       C1633   1.491       .  S
N410        C411   1.371       .  A
C411        N412   1.358       .  A
C411        C764   1.479       .  S
N412        C413   1.355       .  A
C413        N414   1.353       .  A
C413       C2604   1.482       .  S
C415        N416   1.357   1_565  A
C415        N420   1.370   1_565  A
C415       C1644   1.485       .  S
N416        C417   1.354       .  A
C417        N418   1.356       .  A
C417       C2796   1.484       .  S
N418        C419   1.358       .  A
C419        N420   1.369       .  A
C419        C860   1.478       .  S
C421        N422   1.369       .  A
C421        N426   1.358       .  A
C421       C1620   1.486       .  S
N422        C423   1.369       .  A
C423        N424   1.357       .  A
C423        C730   1.474       .  S
N424        C425   1.354       .  A
C425        N426   1.354       .  A
C425       C2508   1.483       .  S
C427        N428   1.368       .  A
C427        N432   1.356       .  A
C427       C1609   1.483       .  S
N428        C429   1.369       .  A
C429        N430   1.358       .  A
C429        C678   1.475       .  S
N430        C431   1.357       .  A
C431        N432   1.354       .  A
C431       C2700   1.481       .  S
C433        N434   1.371       .  A
C433        N438   1.359       .  A
C433       C1596   1.490       .  S
N434        C435   1.371       .  A
C435        N436   1.357       .  A
C435        C738   1.478       .  S
N436        C437   1.355       .  A
C437        N438   1.354       .  A
C437       C2316   1.484       .  S
C439        N440   1.371       .  A
C439        N444   1.360       .  A
C439       C1585   1.490       .  S
N440        C441   1.370       .  A
C441        N442   1.353       .  A
C441        C786   1.475       .  S
N442        C443   1.353       .  A
C443        N444   1.356       .  A
C443       C2401   1.480       .  S
C445        N446   1.369       .  A
C445        N450   1.359       .  A
C445       C1572   1.483       .  S
N446        C447   1.368       .  A
C447        N448   1.357       .  A
C447        C812   1.475       .  S
N448        C449   1.356       .  A
C449        N450   1.355       .  A
C449       C2484   1.483       .  S
C451        N452   1.357       .  A
C451        N456   1.370       .  A
C451       C1561   1.483       .  S
N452        C453   1.354       .  A
C453        N454   1.352       .  A
C453       C2652   1.477       .  S
N454        C455   1.354       .  A
C455        N456   1.371       .  A
C455        C934   1.472       .  S
C457        N458   1.367       .  A
C457        N462   1.360       .  A
C457       C1548   1.486       .  S
N458        C459   1.366       .  A
C459        N460   1.357       .  A
C459        C778   1.471       .  S
N460        C461   1.355       .  A
C461        N462   1.356       .  A
C461       C2556   1.485       .  S
C463        N464   1.358       .  A
C463        N468   1.369   1_565  A
C463       C1537   1.488       .  S
N464        C465   1.354   1_565  A
C465        N466   1.355       .  A
C465       C2772   1.482       .  S
N466        C467   1.357       .  A
C467        N468   1.368       .  A
C467        C982   1.473       .  S
C469        N470   1.359       .  A
C469        N474   1.371       .  A
C469       C1524   1.489       .  S
N470        C471   1.354       .  A
C471        N472   1.354       .  A
C471       C2449   1.482       .  S
N472        C473   1.356       .  A
C473        N474   1.371       .  A
C473        C834   1.477       .  S
C475        N476   1.370       .  A
C475        N480   1.356       .  A
C475       C1513   1.488       .  S
N476        C477   1.370       .  A
C477        N478   1.356       .  A
C477        C893   1.473       .  S
N478        C479   1.354       .  A
C479        N480   1.354       .  A
C479       C2676   1.479       .  S
C481        N482   1.358       .  A
C481        N486   1.371       .  A
C481       C1489   1.490       .  S
N482        C483   1.356       .  A
C483        N484   1.355       .  A
C483       C2580   1.485       .  S
N484        C485   1.357       .  A
C485        N486   1.371       .  A
C485        C714   1.477       .  S
C487        N488   1.355       .  A
C487        N492   1.371       .  A
C487       C1500   1.490   1_545  S
N488        C489   1.354       .  A
C489        N490   1.359       .  A
C489       C2748   1.487       .  S
N490        C491   1.361       .  A
C491        N492   1.373       .  A
C491        C918   1.482       .  S
C493        N494   1.371       .  A
C493        N498   1.357       .  A
C493       C1465   1.489       .  S
N494        C495   1.372       .  A
C495        N496   1.357       .  A
C495        C826   1.479       .  S
N496        C497   1.355       .  A
C497        N498   1.353       .  A
C497       C2268   1.481       .  S
C499        N500   1.372       .  A
C499        N504   1.361       .  A
C499       C1476   1.492       .  S
N500        C501   1.370       .  A
C501        N502   1.353       .  A
C501       C1016   1.474       .  S
N502        C503   1.352       .  A
C503        N504   1.356       .  A
C503       C2377   1.482       .  S
C505        N506   1.371       .  A
C505        N510   1.357       .  A
C505       C1452   1.490       .  S
N506        C507   1.371       .  A
C507        N508   1.357       .  A
C507        C689   1.476       .  S
N508        C509   1.355       .  A
C509        N510   1.353       .  A
C509       C2281   1.480       .  S
C511        N512   1.359       .  A
C511        N516   1.372       .  A
C511       C1441   1.491       .  S
N512        C513   1.354       .  A
C513        N514   1.353       .  A
C513       C2364   1.482       .  S
N514        C515   1.356       .  A
C515        N516   1.371       .  A
C515        C942   1.478       .  S
C517        N518   1.357       .  A
C517        N522   1.371       .  A
C517       C1428   1.486       .  S
N518        C519   1.353       .  A
C519        N520   1.352       .  A
C519       C2532   1.478       .  S
N520        C521   1.354       .  A
C521        N522   1.370       .  A
C521        C968   1.472       .  S
C523        N524   1.360       .  A
C523        N528   1.369       .  A
C523       C1417   1.488   1_545  S
N524        C525   1.356       .  A
C525        N526   1.354       .  A
C525       C2713   1.485       .  S
N526        C527   1.356       .  A
C527        N528   1.369       .  A
C527       C1050   1.475       .  S
C529        N530   1.370       .  A
C529        N534   1.358       .  A
C529       C1393   1.493       .  S
N530        C531   1.370       .  A
C531        N532   1.357       .  A
C531        C990   1.479       .  S
N532        C533   1.357       .  A
C533        N534   1.355       .  A
C533       C2425   1.484       .  S
C535        N536   1.372       .  A
C535        N540   1.359       .  A
C535       C1404   1.490       .  S
N536        C537   1.372       .  A
C537        N538   1.354       .  A
C537       C1042   1.477       .  S
N538        C539   1.352       .  A
C539        N540   1.354       .  A
C539       C2628   1.480       .  S
C541        N542   1.354       .  A
C541        N546   1.371       .  A
C541       C1380   1.486       .  S
N542        C543   1.352       .  A
C543        N544   1.357       .  A
C543       C2244   1.484       .  S
N544        C545   1.360       .  A
C545        N546   1.374       .  A
C545        C882   1.483       .  S
C547        N548   1.371       .  A
C547        N552   1.358       .  A
C547       C1369   1.493       .  S
N548        C549   1.372       .  A
C549        N550   1.354       .  A
C549       C1076   1.476       .  S
N550        C551   1.353       .  A
C551        N552   1.354       .  A
C551       C2329   1.479       .  S
C553        N554   1.369       .  A
C553        N558   1.355       .  A
C553       C1345   1.479       .  S
N554        C555   1.370       .  A
C555        N556   1.358       .  A
C555       C1038   1.478       .  S
N556        C557   1.356       .  A
C557        N558   1.354       .  A
C557       C2028   1.481       .  S
C559        N560   1.366       .  A
C559        N564   1.355       .  A
C559       C1356   1.478       .  S
N560        C561   1.368       .  A
C561        N562   1.357       .  A
C561        C941   1.473       .  S
N562        C563   1.356       .  A
C563        N564   1.355       .  A
C563       C2209   1.481       .  S
C565        N566   1.372       .  A
C565        N570   1.353       .  A
C565       C1332   1.484       .  S
N566        C567   1.374       .  A
C567        N568   1.358       .  A
C567       C1074   1.483       .  S
N568        C569   1.355       .  A
C569        N570   1.353       .  A
C569       C1932   1.480       .  S
C571        N572   1.363       .  A
C571        N576   1.373       .  A
C571       C1321   1.497       .  S
N572        C573   1.357       .  A
C573        N574   1.353       .  A
C573       C2113   1.485       .  S
N574        C575   1.354       .  A
C575        N576   1.370       .  A
C575        C978   1.477       .  S
C577        N578   1.353       .  A
C577        N582   1.369       .  A
C577       C1297   1.479       .  S
N578        C579   1.353       .  A
C579        N580   1.355       .  A
C579       C1908   1.479       .  S
N580        C581   1.357       .  A
C581        N582   1.372       .  A
C581        C920   1.477       .  S
C583        N584   1.359       .  A
C583        N588   1.367       .  A
C583       C1308   1.488       .  S
N584        C585   1.358       .  A
C585        N586   1.355       .  A
C585       C2076   1.482       .  S
N586        C587   1.355       .  A
C587        N588   1.368       .  A
C587        C822   1.473       .  S
C589        N590   1.356       .  A
C589        N594   1.371       .  A
C589       C1284   1.486       .  S
N590        C591   1.351       .  A
C591        N592   1.352       .  A
C591       C1884   1.478       .  S
N592        C593   1.357       .  A
C593        N594   1.371       .  A
C593        C966   1.474       .  S
C595        N596   1.356       .  A
C595        N600   1.369       .  A
C595       C1273   1.485       .  S
N596        C597   1.354       .  A
C597        N598   1.355       .  A
C597       C2089   1.480       .  S
N598        C599   1.357       .  A
C599        N600   1.369       .  A
C599        C785   1.475       .  S
C601        N602   1.367       .  A
C601        N606   1.358       .  A
C601       C1260   1.482       .  S
N602        C603   1.368       .  A
C603        N604   1.355       .  A
C603       C1014   1.469       .  S
N604        C605   1.354       .  A
C605        N606   1.355       .  A
C605       C2004   1.480       .  S
C607        N608   1.369       .  A
C607        N612   1.358       .  A
C607       C1249   1.486       .  S
N608        C609   1.369       .  A
C609        N610   1.356       .  A
C609        C810   1.473       .  S
N610        C611   1.355       .  A
C611        N612   1.354       .  A
C611       C2172   1.480       .  S
C613        N614   1.370       .  A
C613        N618   1.359       .  A
C613       C1236   1.493       .  S
N614        C615   1.370       .  A
C615        N616   1.357       .  A
C615        C989   1.475       .  S
N616        C617   1.354       .  A
C617        N618   1.354       .  A
C617       C1716   1.482       .  S
C619        N620   1.369       .  A
C619        N624   1.355       .  A
C619       C1225   1.486       .  S
N620        C621   1.371       .  A
C621        N622   1.359       .  A
C621        C858   1.478       .  S
N622        C623   1.356       .  A
C623        N624   1.353       .  A
C623       C1777   1.482       .  S
C625        N626   1.357       .  A
C625        N630   1.370       .  A
C625       C1201   1.486       .  S
N626        C627   1.353       .  A
C627        N628   1.354       .  A
C627       C1681   1.479       .  S
N628        C629   1.357       .  A
C629        N630   1.371       .  A
C629        C930   1.477       .  S
C631        N632   1.369       .  A
C631        N636   1.356       .  A
C631       C1212   1.489       .  S
N632        C633   1.370       .  A
C633        N634   1.358       .  A
C633        C716   1.473       .  S
N634        C635   1.355       .  A
C635        N636   1.354       .  A
C635       C1812   1.481       .  S
C637        N638   1.359       .  A
C637        N642   1.370       .  A
C637       C1188   1.486       .  S
N638        C639   1.354       .  A
C639        N640   1.354       .  A
C639       C1945   1.479       .  S
N640        C641   1.355       .  A
C641        N642   1.369       .  A
C641        C833   1.473       .  S
C643        N644   1.354       .  A
C643        N648   1.368       .  A
C643       C1177   1.488       .  S
N644        C645   1.353       .  A
C645        N646   1.359       .  A
C645       C2148   1.487       .  S
N646        C647   1.363       .  A
C647        N648   1.372       .  A
C647        C737   1.482       .  S
C649        N650   1.357       .  A
C649        N654   1.369       .  A
C649       C1164   1.491       .  S
N650        C651   1.354       .  A
C651        N652   1.356       .  A
C651       C1668   1.485       .  S
N652        C653   1.360       .  A
C653        N654   1.369       .  A
C653        C774   1.478       .  S
C655        N656   1.372       .  A
C655        N660   1.357       .  A
C655       C1153   1.492       .  S
N656        C657   1.372       .  A
C657        N658   1.356       .  A
C657        C726   1.478       .  S
N658        C659   1.353       .  A
C659        N660   1.353       .  A
C659       C1764   1.481       .  S
C661        N662   1.369       .  A
C661        N666   1.357       .  A
C661       C1140   1.483       .  S
N662        C663   1.369       .  A
C663        N664   1.357       .  A
C663        C690   1.476       .  S
N664        C665   1.357       .  A
C665        N666   1.355       .  A
C665       C1860   1.483       .  S
C667        N668   1.371       .  A
C667        N672   1.359       .  A
C667       C1129   1.485       .  S
N668        C669   1.371       .  A
C669        N670   1.355       .  A
C669        C762   1.477       .  S
N670        C671   1.353       .  A
C671        N672   1.355       .  A
C671       C2052   1.482       .  S
O673       Mg675   2.159       .  S
O673       Mg681   2.160       .  S
O673        C708   1.237       .  S
C674        H713   1.081       .  S
C674        O687   1.237       .  S
C674        O711   1.270       .  A
Mg675       O704   2.157       .  S
Mg675       O719   2.343       .  S
Mg675       O715   2.286       .  S
Mg675       O686   2.302       .  S
O676       Mg718   2.159       .  S
O676       Mg701   2.151       .  S
O676        C697   1.238       .  S
O677        C708   1.271       .  A
O677       Mg701   2.300       .  S
C678        O680   1.274       .  A
C678        O692   1.280       .  A
O679        C707   1.272       .  A
O679       Mg681   2.302       .  S
O680       Mg712   2.284       .  S
Mg681       O687   2.150       .  S
Mg681       O695   2.294       .  S
Mg681       O683   2.339       .  S
C682        C875   1.468       .  S
C682        O720   1.274       .  A
C682        O688   1.276       .  A
O683        C690   1.280       .  A
H684        C697   1.081       .  S
C685        H710   1.081       .  S
C685        O699   1.236       .  S
C685        O700   1.270       .  A
O686        C709   1.272       .  A
O687       Mg701   2.166       .  S
O688       Mg718   2.313       .  S
C689        O702   1.273       .  A
C689        O694   1.281       .  A
C690        O717   1.275       .  A
Mg691       O698   2.153       .  S
Mg691       O699   2.161       .  S
Mg691       O692   2.343       .  S
Mg691       O693   2.300       .  S
Mg691       O720   2.289       .  S
O693        C697   1.272       .  A
O694       Mg701   2.353       .  S
O695        C714   1.276       .  A
O696        C716   1.278       .  A
O696       Mg712   2.336       .  S
O698       Mg712   2.161       .  S
O698        C709   1.238       .  S
O699       Mg718   2.153       .  S
O700       Mg712   2.298       .  S
Mg701       O717   2.290       .  S
O702       Mg718   2.280       .  S
H703        C708   1.081       .  S
O704       Mg712   2.156       .  S
O704        C707   1.238       .  S
H705        C707   1.081       .  S
H706        C709   1.081       .  S
O711       Mg718   2.293       .  S
C714        O719   1.279       .  A
O715        C716   1.274       .  A
O721       Mg723   2.150       .  S
O721       Mg729   2.167       .  S
O721        C756   1.238       .  S
C722        H761   1.081       .  S
C722        O735   1.236       .  S
C722        O759   1.269       .  A
Mg723       O752   2.169       .  S
Mg723       O767   2.329       .  S
Mg723       O763   2.308       .  S
Mg723       O734   2.295       .  S
O724       Mg766   2.169       .  S
O724       Mg749   2.147       .  S
O724        C745   1.238       .  S
O725        C756   1.271       .  A
O725       Mg749   2.297       .  S
C726        O728   1.276       .  A
C726        O740   1.279       .  A
O727        C755   1.272       .  A
O727       Mg729   2.296       .  S
O728       Mg760   2.306       .  S
Mg729       O735   2.141       .  S
Mg729       O743   2.296       .  S
Mg729       O731   2.322       .  S
C730        O768   1.275       .  A
C730        O736   1.278       .  A
O731        C738   1.280       .  A
H732        C745   1.081       .  S
C733        H758   1.081       .  S
C733        O747   1.237       .  S
C733        O748   1.271       .  A
O734        C757   1.271       .  A
O735       Mg749   2.168       .  S
O736       Mg766   2.314       .  S
C737        O750   1.277       .  A
C737        O742   1.282       .  A
C738        O765   1.277       .  A
Mg739       O746   2.145       .  S
Mg739       O747   2.168       .  S
Mg739       O740   2.319       .  S
Mg739       O741   2.294       .  S
Mg739       O768   2.296       .  S
O741        C745   1.271       .  A
O742       Mg749   2.345       .  S
O743        C762   1.275       .  A
O744        C764   1.279       .  A
O744       Mg760   2.324       .  S
O746       Mg760   2.170       .  S
O746        C757   1.237       .  S
O747       Mg766   2.152       .  S
O748       Mg760   2.296       .  S
Mg749       O765   2.309       .  S
O750       Mg766   2.302       .  S
H751        C756   1.081       .  S
O752       Mg760   2.147       .  S
O752        C755   1.238       .  S
H753        C755   1.081       .  S
H754        C757   1.081       .  S
O759       Mg766   2.288       .  S
C762        O767   1.280       .  A
O763        C764   1.277       .  A
O769       Mg771   2.156       .  S
O769       Mg777   2.168       .  S
O769        C804   1.238       .  S
C770        H809   1.081       .  S
C770        O783   1.237       .  S
C770        O807   1.269       .  A
Mg771       O800   2.169       .  S
Mg771       O815   2.335       .  S
Mg771       O811   2.309       .  S
Mg771       O782   2.298       .  S
O772       Mg814   2.169       .  S
O772       Mg797   2.130       .  S
O772        C793   1.236       .  S
O773        C804   1.272       .  A
O773       Mg797   2.298       .  S
C774        O776   1.276       .  A
C774        O788   1.278       .  A
O775        C803   1.272       .  A
O775       Mg777   2.303       .  S
O776       Mg808   2.307       .  S
Mg777       O783   2.131       .  S
Mg777       O791   2.283       .  S
Mg777       O779   2.336       .  S
C778        O816   1.276       .  A
C778        O784   1.278       .  A
O779        C786   1.281       .  A
H780        C793   1.081       .  S
C781        H806   1.081       .  S
C781        O795   1.236       .  S
C781        O796   1.269       .  A
O782        C805   1.271       .  A
O783       Mg797   2.164       .  S
O784       Mg814   2.307       .  S
C785        O798   1.276       .  A
C785        O790   1.277       .  A
C786        O813   1.273       .  A
Mg787       O794   2.150       .  S
Mg787       O795   2.173       .  S
Mg787       O788   2.316       .  S
Mg787       O789   2.285       .  S
Mg787       O816   2.295       .  S
O789        C793   1.268       .  A
O790       Mg797   2.308       .  S
O791        C810   1.274       .  A
O792        C812   1.277       .  A
O792       Mg808   2.314       .  S
O794       Mg808   2.170       .  S
O794        C805   1.237       .  S
O795       Mg814   2.145       .  S
O796       Mg808   2.289       .  S
Mg797       O813   2.281       .  S
O798       Mg814   2.304       .  S
H799        C804   1.081       .  S
O800       Mg808   2.162       .  S
O800        C803   1.238       .  S
H801        C803   1.081       .  S
H802        C805   1.081       .  S
O807       Mg814   2.287       .  S
C810        O815   1.281       .  A
O811        C812   1.277       .  A
O817       Mg819   2.148       .  S
O817       Mg825   2.171       .  S
O817        C852   1.238       .  S
C818        H857   1.081       .  S
C818        O831   1.238       .  S
C818        O855   1.271       .  A
Mg819       O848   2.165       .  S
Mg819       O863   2.333       .  S
Mg819       O859   2.309       .  S
Mg819       O830   2.297       .  S
O820       Mg862   2.165       .  S
O820       Mg845   2.148       .  S
O820        C841   1.237       .  S
O821        C852   1.271       .  A
O821       Mg845   2.295       .  S
C822        O824   1.273       .  A
C822        O836   1.280       .  A
O823        C851   1.270       .  A
O823       Mg825   2.292       .  S
O824       Mg856   2.277       .  S
Mg825       O831   2.147       .  S
Mg825       O839   2.299       .  S
Mg825       O827   2.323       .  S
C826        O864   1.277       .  A
C826        O832   1.280       .  A
O827        C834   1.279       .  A
H828        C841   1.081       .  S
C829        H854   1.081       .  S
C829        O843   1.237       .  S
C829        O844   1.270       .  A
O830        C853   1.271       .  A
O831       Mg845   2.168       .  S
O832       Mg862   2.328       .  S
C833        O846   1.275       .  A
C833        O838   1.278       .  A
C834        O861   1.275       .  A
Mg835       O842   2.153       .  S
Mg835       O843   2.169       .  S
Mg835       O836   2.334       .  S
Mg835       O837   2.295       .  S
Mg835       O864   2.307       .  S
O837        C841   1.270       .  A
O838       Mg845   2.319       .  S
O839        C858   1.276       .  A
O840        C860   1.278       .  A
O840       Mg856   2.315       .  S
O842       Mg856   2.169       .  S
O842        C853   1.238       .  S
O843       Mg862   2.140       .  S
O844       Mg856   2.290       .  S
Mg845       O861   2.300       .  S
O846       Mg862   2.296       .  S
H847        C852   1.081       .  S
O848       Mg856   2.141       .  S
O848        C851   1.236       .  S
H849        C851   1.081       .  S
H850        C853   1.081       .  S
O855       Mg862   2.297       .  S
C858        O863   1.281       .  A
O859        C860   1.276       .  A
C865        N866   1.359       .  A
C865        N870   1.371       .  A
C865       C1116   1.485       .  S
N866        C867   1.354       .  A
C867        N868   1.351       .  A
C867       C1969   1.475       .  S
N868        C869   1.353       .  A
C869        N870   1.370       .  A
C869        C886   1.472       .  S
C871        N872   1.358       .  A
C871        N876   1.367       .  A
C871       C1105   1.477       .  S
N872        C873   1.355       .  A
C873        N874   1.355       .  A
C873       C2185   1.480       .  S
N874        C875   1.355       .  A
C875        N876   1.366       .  A
O877       Mg879   2.153       .  S
O877       Mg885   2.156       .  S
O877        C912   1.236       .  S
C878        H917   1.081       .  S
C878        O891   1.238       .  S
C878        O915   1.272       .  A
Mg879       O908   2.168       .  S
Mg879       O923   2.352       .  S
Mg879       O919   2.296       .  S
Mg879       O890   2.298       .  S
O880       Mg922   2.160       .  S
O880       Mg905   2.159       .  S
O880        C901   1.238       .  S
O881        C912   1.270       .  A
O881       Mg905   2.296       .  S
C882        O884   1.277       .  A
C882        O896   1.282       .  A
O883        C911   1.272       .  A
O883       Mg885   2.302       .  S
O884       Mg916   2.304       .  S
Mg885       O891   2.161       .  S
Mg885       O899   2.305       .  S
Mg885       O887   2.361       .  S
C886        O924   1.275       .  A
C886        O892   1.278       .  A
O887        C894   1.282       .  A
H888        C901   1.081       .  S
C889        H914   1.081       .  S
C889        O903   1.237       .  S
C889        O904   1.270       .  A
O890        C913   1.272       .  A
O891       Mg905   2.162       .  S
O892       Mg922   2.317       .  S
C893        O906   1.273       .  A
C893        O898   1.278       .  A
C894       C1031   1.479       .  S
C894        O921   1.275       .  A
Mg895       O902   2.148       .  S
Mg895       O903   2.165       .  S
Mg895       O896   2.354       .  S
Mg895       O897   2.305       .  S
Mg895       O924   2.299       .  S
O897        C901   1.272       .  A
O898       Mg905   2.334       .  S
O899        C918   1.278       .  A
O900        C920   1.280       .  A
O900       Mg916   2.329       .  S
O902       Mg916   2.163       .  S
O902        C913   1.238       .  S
O903       Mg922   2.144       .  S
O904       Mg916   2.296       .  S
Mg905       O921   2.284       .  S
O906       Mg922   2.283       .  S
H907        C912   1.081       .  S
O908       Mg916   2.161       .  S
O908        C911   1.238       .  S
H909        C911   1.081       .  S
H910        C913   1.081       .  S
O915       Mg922   2.300       .  S
C918        O923   1.281       .  A
O919        C920   1.275       .  A
O925       Mg927   2.144       .  S
O925       Mg933   2.167       .  S
O925        C960   1.237       .  S
C926        H965   1.081       .  S
C926        O939   1.238       .  S
C926        O963   1.271       .  A
Mg927       O956   2.169       .  S
Mg927       O971   2.313       .  S
Mg927       O967   2.298       .  S
Mg927       O938   2.286       .  S
O928       Mg970   2.166       .  S
O928       Mg953   2.153       .  S
O928        C949   1.238       .  S
O929        C960   1.270       .  A
O929       Mg953   2.293       .  S
C930        O932   1.275       .  A
C930        O944   1.280       .  A
O931        C959   1.270       .  A
O931       Mg933   2.293       .  S
O932       Mg964   2.299       .  S
Mg933       O939   2.144       .  S
Mg933       O947   2.300       .  S
Mg933       O935   2.318       .  S
C934        O972   1.273       .  A
C934        O940   1.280       .  A
O935        C942   1.279       .  A
H936        C949   1.081       .  S
C937        H962   1.081       .  S
C937        O951   1.237       .  S
C937        O952   1.270       .  A
O938        C961   1.269       .  A
O939       Mg953   2.172       .  S
O940       Mg970   2.326       .  S
C941        O954   1.274       .  A
C941        O946   1.279       .  A
C942        O969   1.276       .  A
Mg943       O950   2.127       .  S
Mg943       O951   2.162       .  S
Mg943       O944   2.324       .  S
Mg943       O945   2.298       .  S
Mg943       O972   2.283       .  S
O945        C949   1.272       .  A
O946       Mg953   2.327       .  S
O947        C966   1.275       .  A
O948        C968   1.278       .  A
O948       Mg964   2.313       .  S
O950       Mg964   2.163       .  S
O950        C961   1.237       .  S
O951       Mg970   2.137       .  S
O952       Mg964   2.291       .  S
Mg953       O969   2.308       .  S
O954       Mg970   2.283       .  S
H955        C960   1.081       .  S
O956       Mg964   2.142       .  S
O956        C959   1.237       .  S
H957        C959   1.081       .  S
H958        C961   1.081       .  S
O963       Mg970   2.295       .  S
C966        O971   1.278       .  A
O967        C968   1.275       .  A
O973       Mg975   2.144       .  S
O973       Mg981   2.166       .  S
O973       C1008   1.236       .  S
C974       H1013   1.081       .  S
C974        O987   1.237       .  S
C974       O1011   1.270       .  A
Mg975      O1004   2.173       .  S
Mg975      O1019   2.318       .  S
Mg975      O1015   2.295       .  S
Mg975       O986   2.294       .  S
O976      Mg1018   2.168       .  S
O976      Mg1001   2.144       .  S
O976        C997   1.237       .  S
O977       C1008   1.270       .  A
O977      Mg1001   2.292       .  S
C978        O980   1.276       .  A
C978        O992   1.280       .  A
O979       C1007   1.272       .  A
O979       Mg981   2.300       .  S
O980      Mg1012   2.301       .  S
Mg981       O987   2.133       .  S
Mg981       O995   2.277       .  S
Mg981       O983   2.331       .  S
C982       O1020   1.275       .  A
C982        O988   1.278       .  A
O983        C990   1.280       .  A
H984        C997   1.081       .  S
C985       H1010   1.081       .  S
C985        O999   1.237       .  S
C985       O1000   1.270       .  A
O986       C1009   1.270       .  A
O987      Mg1001   2.164       .  S
O988      Mg1018   2.315       .  S
C989       O1002   1.276       .  A
C989        O994   1.279       .  A
C990       O1017   1.276       .  A
Mg991       O998   2.145       .  S
Mg991       O999   2.169       .  S
Mg991       O992   2.331       .  S
Mg991       O993   2.292       .  S
Mg991      O1020   2.296       .  S
O993        C997   1.270       .  A
O994      Mg1001   2.323       .  S
O995       C1014   1.273       .  A
O996       C1016   1.279       .  A
O996      Mg1012   2.324       .  S
O998      Mg1012   2.165       .  S
O998       C1009   1.237       .  S
O999      Mg1018   2.153       .  S
O1000     Mg1012   2.297       .  S
Mg1001     O1017   2.302       .  S
O1002     Mg1018   2.299       .  S
H1003      C1008   1.081       .  S
O1004     Mg1012   2.152       .  S
O1004      C1007   1.238       .  S
H1005      C1007   1.081       .  S
H1006      C1009   1.081       .  S
O1011     Mg1018   2.289       .  S
C1014      O1019   1.278       .  A
O1015      C1016   1.274       .  A
C1021      N1022   1.361       .  A
C1021      N1026   1.372       .  A
C1021      C1081   1.496       .  S
N1022      C1023   1.356       .  A
C1023      N1024   1.354       .  A
C1023      C1740   1.485       .  S
N1024      C1025   1.356       .  A
C1025      N1026   1.370       .  A
C1025      C1049   1.478       .  S
C1027      N1028   1.355       .  A
C1027      N1032   1.369       .  A
C1027      C1092   1.486       .  S
N1028      C1029   1.354       .  A
C1029      N1030   1.358       .  A
C1029      C1836   1.484       .  S
N1030      C1031   1.360       .  A
C1031      N1032   1.370       .  A
O1033     Mg1035   2.131       .  S
O1033     Mg1041   2.163       .  S
O1033      C1068   1.237       .  S
C1034      H1073   1.081       .  S
C1034      O1047   1.238       .  S
C1034      O1071   1.271       .  A
Mg1035     O1064   2.166       .  S
Mg1035     O1079   2.343       .  S
Mg1035     O1075   2.287       .  S
Mg1035     O1046   2.296       .  S
O1036     Mg1078   2.164       .  S
O1036     Mg1061   2.146       .  S
O1036      C1057   1.237       .  S
O1037      C1068   1.270       .  A
O1037     Mg1061   2.287       .  S
C1038      O1040   1.276       .  A
C1038      O1052   1.279       .  A
O1039      C1067   1.271       .  A
O1039     Mg1041   2.292       .  S
O1040     Mg1072   2.303       .  S
Mg1041     O1047   2.150       .  S
Mg1041     O1055   2.304       .  S
Mg1041     O1043   2.308       .  S
C1042      O1080   1.275       .  A
C1042      O1048   1.281       .  A
O1043      C1050   1.278       .  A
H1044      C1057   1.081       .  S
C1045      H1070   1.081       .  S
C1045      O1059   1.239       .  S
C1045      O1060   1.272       .  A
O1046      C1069   1.271       .  A
O1047     Mg1061   2.173       .  S
O1048     Mg1078   2.331       .  S
C1049      O1062   1.277       .  A
C1049      O1054   1.279       .  A
C1050      O1077   1.275       .  A
Mg1051     O1058   2.147       .  S
Mg1051     O1059   2.172       .  S
Mg1051     O1052   2.328       .  S
Mg1051     O1053   2.295       .  S
Mg1051     O1080   2.297       .  S
O1053      C1057   1.271       .  A
O1054     Mg1061   2.318       .  S
O1055      C1074   1.276       .  A
O1056      C1076   1.282       .  A
O1056     Mg1072   2.339       .  S
O1058     Mg1072   2.162       .  S
O1058      C1069   1.237       .  S
O1059     Mg1078   2.151       .  S
O1060     Mg1072   2.300       .  S
Mg1061     O1077   2.301       .  S
O1062     Mg1078   2.313       .  S
H1063      C1068   1.081       .  S
O1064     Mg1072   2.147       .  S
O1064      C1067   1.238       .  S
H1065      C1067   1.081       .  S
H1066      C1069   1.081       .  S
O1071     Mg1078   2.296       .  S
C1074      O1079   1.282       .  A
O1075      C1076   1.275       .  A
C1081      C1082   1.407       .  A
C1081      C1086   1.410       .  A
C1082      C1083   1.410       .  A
C1082      H1095   1.083       .  S
C1083      C1084   1.409       .  A
C1083      H1096   1.083       .  S
C1084      C1085   1.406       .  A
C1084      C1087   1.499       .  S
C1085      C1086   1.400       .  A
C1085      H1097   1.082       .  S
C1086      H1098   1.083       .  S
C1087      C1088   1.355       .  D
C1087      H1099   1.085       .  S
C1088      C1089   1.500       .  S
C1088      H1100   1.086       .  S
C1089      C1090   1.410       .  A
C1089      C1094   1.408       .  A
C1090      C1091   1.407       .  A
C1090      H1101   1.083       .  S
C1091      C1092   1.403       .  A
C1091      H1102   1.083       .  S
C1092      C1093   1.408       .  A
C1093      C1094   1.402       .  A
C1093      H1103   1.084       .  S
C1094      H1104   1.081       .  S
C1105      C1106   1.402       .  A
C1105      C1110   1.404       .  A
C1106      C1107   1.404       .  A
C1106      H1119   1.083       .  S
C1107      C1108   1.408       .  A
C1107      H1120   1.083       .  S
C1108      C1109   1.408       .  A
C1108      C1111   1.494       .  S
C1109      C1110   1.401       .  A
C1109      H1121   1.082       .  S
C1110      H1122   1.083       .  S
C1111      C1112   1.352       .  D
C1111      H1123   1.086       .  S
C1112      C1113   1.494       .  S
C1112      H1124   1.085       .  S
C1113      C1114   1.409       .  A
C1113      C1118   1.406       .  A
C1114      C1115   1.409       .  A
C1114      H1125   1.083       .  S
C1115      C1116   1.405       .  A
C1115      H1126   1.083       .  S
C1116      C1117   1.406       .  A
C1117      C1118   1.397       .  A
C1117      H1127   1.083       .  S
C1118      H1128   1.082       .  S
C1129      C1130   1.403       .  A
C1129      C1134   1.405       .  A
C1130      C1131   1.399       .  A
C1130      H1143   1.084       .  S
C1131      C1132   1.405       .  A
C1131      H1144   1.083       .  S
C1132      C1133   1.414       .  A
C1132      C1135   1.503       .  S
C1133      C1134   1.411       .  A
C1133      H1145   1.081       .  S
C1134      H1146   1.083       .  S
C1135      C1136   1.352       .  D
C1135      H1147   1.085       .  S
C1136      C1137   1.501       .  S
C1136      H1148   1.084       .  S
C1137      C1138   1.405       .  A
C1137      C1142   1.413       .  A
C1138      C1139   1.400       .  A
C1138      H1149   1.083       .  S
C1139      C1140   1.404       .  A
C1139      H1150   1.083       .  S
C1140      C1141   1.405       .  A
C1141      C1142   1.409       .  A
C1141      H1151   1.083       .  S
C1142      H1152   1.081       .  S
C1153      C1154   1.405       .  A
C1153      C1158   1.410       .  A
C1154      C1155   1.410       .  A
C1154      H1167   1.083       .  S
C1155      C1156   1.410       .  A
C1155      H1168   1.083       .  S
C1156      C1157   1.404       .  A
C1156      C1159   1.496       .  S
C1157      C1158   1.398       .  A
C1157      H1169   1.082       .  S
C1158      H1170   1.083       .  S
C1159      C1160   1.354       .  D
C1159      H1171   1.086       .  S
C1160      C1161   1.495       .  S
C1160      H1172   1.086       .  S
C1161      C1162   1.409       .  A
C1161      C1166   1.405       .  A
C1162      C1163   1.408       .  A
C1162      H1173   1.083       .  S
C1163      C1164   1.405       .  A
C1163      H1174   1.083       .  S
C1164      C1165   1.410       .  A
C1165      C1166   1.398       .  A
C1165      H1175   1.083       .  S
C1166      H1176   1.082       .  S
C1177      C1178   1.405       .  A
C1177      C1182   1.407       .  A
C1178      C1179   1.410       .  A
C1178      H1191   1.083       .  S
C1179      C1180   1.411       .  A
C1179      H1192   1.083       .  S
C1180      C1181   1.406       .  A
C1180      C1183   1.499       .  S
C1181      C1182   1.398       .  A
C1181      H1193   1.082       .  S
C1182      H1194   1.083       .  S
C1183      C1184   1.356       .  D
C1183      H1195   1.085       .  S
C1184      C1185   1.499       .  S
C1184      H1196   1.085       .  S
C1185      C1186   1.411       .  A
C1185      C1190   1.407       .  A
C1186      C1187   1.407       .  A
C1186      H1197   1.083       .  S
C1187      C1188   1.403       .  A
C1187      H1198   1.083       .  S
C1188      C1189   1.407       .  A
C1189      C1190   1.400       .  A
C1189      H1199   1.083       .  S
C1190      H1200   1.081       .  S
C1201      C1202   1.403       .  A
C1201      C1206   1.407       .  A
C1202      C1203   1.408       .  A
C1202      H1215   1.083       .  S
C1203      C1204   1.411       .  A
C1203      H1216   1.083       .  S
C1204      C1205   1.407       .  A
C1204      C1207   1.499       .  S
C1205      C1206   1.400       .  A
C1205      H1217   1.081       .  S
C1206      H1218   1.084       .  S
C1207      C1208   1.355       .  D
C1207      H1219   1.085       .  S
C1208      C1209   1.499       .  S
C1208      H1220   1.085       .  S
C1209      C1210   1.410       .  A
C1209      C1214   1.407       .  A
C1210      C1211   1.408       .  A
C1210      H1221   1.083       .  S
C1211      C1212   1.404       .  A
C1211      H1222   1.083       .  S
C1212      C1213   1.408       .  A
C1213      C1214   1.399       .  A
C1213      H1223   1.083       .  S
C1214      H1224   1.081       .  S
C1225      C1226   1.404       .  A
C1225      C1230   1.407       .  A
C1226      C1227   1.408       .  A
C1226      H1239   1.083       .  S
C1227      C1228   1.411       .  A
C1227      H1240   1.083       .  S
C1228      C1229   1.406       .  A
C1228      C1231   1.498       .  S
C1229      C1230   1.399       .  A
C1229      H1241   1.081       .  S
C1230      H1242   1.084       .  S
C1231      C1232   1.355       .  D
C1231      H1243   1.086       .  S
C1232      C1233   1.497       .  S
C1232      H1244   1.085       .  S
C1233      C1234   1.410       .  A
C1233      C1238   1.405       .  A
C1234      C1235   1.409       .  A
C1234      H1245   1.083       .  S
C1235      C1236   1.406       .  A
C1235      H1246   1.083       .  S
C1236      C1237   1.409       .  A
C1237      C1238   1.398       .  A
C1237      H1247   1.083       .  S
C1238      H1248   1.082       .  S
C1249      C1250   1.406       .  A
C1249      C1254   1.404       .  A
C1250      C1251   1.397       .  A
C1250      H1263   1.083       .  S
C1251      C1252   1.407       .  A
C1251      H1264   1.081       .  S
C1252      C1253   1.410       .  A
C1252      C1255   1.497       .  S
C1253      C1254   1.408       .  A
C1253      H1265   1.083       .  S
C1254      H1266   1.083       .  S
C1255      C1256   1.355       .  D
C1255      H1267   1.084       .  S
C1256      C1257   1.498       .  S
C1256      H1268   1.085       .  S
C1257      C1258   1.410       .  A
C1257      C1262   1.408       .  A
C1258      C1259   1.406       .  A
C1258      H1269   1.083       .  S
C1259      C1260   1.403       .  A
C1259      H1270   1.083       .  S
C1260      C1261   1.405       .  A
C1261      C1262   1.398       .  A
C1261      H1271   1.084       .  S
C1262      H1272   1.080       .  S
C1273      C1274   1.403       .  A
C1273      C1278   1.407       .  A
C1274      C1275   1.406       .  A
C1274      H1287   1.083       .  S
C1275      C1276   1.411       .  A
C1275      H1288   1.083       .  S
C1276      C1277   1.408       .  A
C1276      C1279   1.499       .  S
C1277      C1278   1.399       .  A
C1277      H1289   1.081       .  S
C1278      H1290   1.084       .  S
C1279      C1280   1.357       .  D
C1279      H1291   1.084       .  S
C1280      C1281   1.501       .  S
C1280      H1292   1.084       .  S
C1281      C1282   1.412       .  A
C1281      C1286   1.407       .  A
C1282      C1283   1.409       .  A
C1282      H1293   1.083       .  S
C1283      C1284   1.403       .  A
C1283      H1294   1.083       .  S
C1284      C1285   1.407       .  A
C1285      C1286   1.397       .  A
C1285      H1295   1.084       .  S
C1286      H1296   1.080       .  S
C1297      C1298   1.403       .  A
C1297      C1302   1.405       .  A
C1298      C1299   1.404       .  A
C1298      H1311   1.083       .  S
C1299      C1300   1.408       .  A
C1299      H1312   1.083       .  S
C1300      C1301   1.410       .  A
C1300      C1303   1.500       .  S
C1301      C1302   1.405       .  A
C1301      H1313   1.081       .  S
C1302      H1314   1.083       .  S
C1303      C1304   1.353       .  D
C1303      H1315   1.086       .  S
C1304      C1305   1.499       .  S
C1304      H1316   1.085       .  S
C1305      C1306   1.408       .  A
C1305      C1310   1.408       .  A
C1306      C1307   1.407       .  A
C1306      H1317   1.083       .  S
C1307      C1308   1.404       .  A
C1307      H1318   1.083       .  S
C1308      C1309   1.407       .  A
C1309      C1310   1.402       .  A
C1309      H1319   1.083       .  S
C1310      H1320   1.082       .  S
C1321      C1322   1.407       .  A
C1321      C1326   1.408       .  A
C1322      C1323   1.400       .  A
C1322      H1335   1.083       .  S
C1323      C1324   1.405       .  A
C1323      H1336   1.083       .  S
C1324      C1325   1.414       .  A
C1324      C1327   1.507       .  S
C1325      C1326   1.413       .  A
C1325      H1337   1.081       .  S
C1326      H1338   1.083       .  S
C1327      C1328   1.355       .  D
C1327      H1339   1.083       .  S
C1328      C1329   1.510       .  S
C1328      H1340   1.084       .  S
C1329      C1330   1.408       .  A
C1329      C1334   1.414       .  A
C1330      C1331   1.404       .  A
C1330      H1341   1.083       .  S
C1331      C1332   1.404       .  A
C1331      H1342   1.083       .  S
C1332      C1333   1.405       .  A
C1333      C1334   1.409       .  A
C1333      H1343   1.083       .  S
C1334      H1344   1.080       .  S
C1345      C1346   1.403       .  A
C1345      C1350   1.404       .  A
C1346      C1347   1.403       .  A
C1346      H1359   1.083       .  S
C1347      C1348   1.406       .  A
C1347      H1360   1.083       .  S
C1348      C1349   1.411       .  A
C1348      C1351   1.498       .  S
C1349      C1350   1.405       .  A
C1349      H1361   1.082       .  S
C1350      H1362   1.083       .  S
C1351      C1352   1.351       .  D
C1351      H1363   1.086       .  S
C1352      C1353   1.498       .  S
C1352      H1364   1.085       .  S
C1353      C1354   1.407       .  A
C1353      C1358   1.410       .  A
C1354      C1355   1.404       .  A
C1354      H1365   1.083       .  S
C1355      C1356   1.402       .  A
C1355      H1366   1.083       .  S
C1356      C1357   1.404       .  A
C1357      C1358   1.403       .  A
C1357      H1367   1.083       .  S
C1358      H1368   1.081       .  S
C1369      C1370   1.406       .  A
C1369      C1374   1.408       .  A
C1370      C1371   1.411       .  A
C1370      H1383   1.083       .  S
C1371      C1372   1.410       .  A
C1371      H1384   1.083       .  S
C1372      C1373   1.407       .  A
C1372      C1375   1.502       .  S
C1373      C1374   1.399       .  A
C1373      H1385   1.082       .  S
C1374      H1386   1.083       .  S
C1375      C1376   1.353   1_554  D
C1375      H1387   1.085       .  S
C1376      C1377   1.501       .  S
C1376      H1388   1.087   1_556  S
C1377      C1378   1.405       .  A
C1377      C1382   1.412       .  A
C1378      C1379   1.400       .  A
C1378      H1389   1.083       .  S
C1379      C1380   1.404       .  A
C1379      H1390   1.084       .  S
C1380      C1381   1.408       .  A
C1381      C1382   1.413       .  A
C1381      H1391   1.083       .  S
C1382      H1392   1.082       .  S
C1393      C1394   1.404       .  A
C1393      C1398   1.409       .  A
C1394      C1395   1.408       .  A
C1394      H1407   1.083       .  S
C1395      C1396   1.410       .  A
C1395      H1408   1.083       .  S
C1396      C1397   1.407       .  A
C1396      C1399   1.500       .  S
C1397      C1398   1.401       .  A
C1397      H1409   1.081       .  S
C1398      H1410   1.083       .  S
C1399      C1400   1.357   1_655  D
C1399      H1411   1.085       .  S
C1400      C1401   1.502       .  S
C1400      H1412   1.085       .  S
C1401      C1402   1.412       .  A
C1401      C1406   1.407       .  A
C1402      C1403   1.411       .  A
C1402      H1413   1.083       .  S
C1403      C1404   1.405       .  A
C1403      H1414   1.083       .  S
C1404      C1405   1.407       .  A
C1405      C1406   1.399       .  A
C1405      H1415   1.083       .  S
C1406      H1416   1.081       .  S
C1417      C1418   1.404       .  A
C1417      C1422   1.406       .  A
C1418      C1419   1.408       .  A
C1418      H1431   1.083       .  S
C1419      C1420   1.411       .  A
C1419      H1432   1.083       .  S
C1420      C1421   1.408       .  A
C1420      C1423   1.501       .  S
C1421      C1422   1.400       .  A
C1421      H1433   1.081       .  S
C1422      H1434   1.083       .  S
C1423      C1424   1.356       .  D
C1423      H1435   1.084       .  S
C1424      C1425   1.501       .  S
C1424      H1436   1.085       .  S
C1425      C1426   1.411       .  A
C1425      C1430   1.408       .  A
C1426      C1427   1.408       .  A
C1426      H1437   1.083       .  S
C1427      C1428   1.403       .  A
C1427      H1438   1.083       .  S
C1428      C1429   1.407       .  A
C1429      C1430   1.399       .  A
C1429      H1439   1.084       .  S
C1430      H1440   1.081       .  S
C1441      C1442   1.404       .  A
C1441      C1446   1.409       .  A
C1442      C1443   1.409       .  A
C1442      H1455   1.083       .  S
C1443      C1444   1.410       .  A
C1443      H1456   1.083       .  S
C1444      C1445   1.406       .  A
C1444      C1447   1.499       .  S
C1445      C1446   1.400       .  A
C1445      H1457   1.082       .  S
C1446      H1458   1.083       .  S
C1447      C1448   1.355   1_554  D
C1447      H1459   1.085       .  S
C1448      C1449   1.499       .  S
C1448      H1460   1.086       .  S
C1449      C1450   1.410       .  A
C1449      C1454   1.406       .  A
C1450      C1451   1.408       .  A
C1450      H1461   1.083       .  S
C1451      C1452   1.404       .  A
C1451      H1462   1.083       .  S
C1452      C1453   1.409       .  A
C1453      C1454   1.401       .  A
C1453      H1463   1.083       .  S
C1454      H1464   1.082       .  S
C1465      C1466   1.404       .  A
C1465      C1470   1.407       .  A
C1466      C1467   1.409       .  A
C1466      H1479   1.083       .  S
C1467      C1468   1.411       .  A
C1467      H1480   1.083       .  S
C1468      C1469   1.407       .  A
C1468      C1471   1.501       .  S
C1469      C1470   1.399       .  A
C1469      H1481   1.081       .  S
C1470      H1482   1.084       .  S
C1471      C1472   1.357   1_556  D
C1471      H1483   1.085       .  S
C1472      C1473   1.501       .  S
C1472      H1484   1.085       .  S
C1473      C1474   1.411       .  A
C1473      C1478   1.407       .  A
C1474      C1475   1.408       .  A
C1474      H1485   1.083       .  S
C1475      C1476   1.404       .  A
C1475      H1486   1.083       .  S
C1476      C1477   1.408       .  A
C1477      C1478   1.401       .  A
C1477      H1487   1.083       .  S
C1478      H1488   1.081       .  S
C1489      C1490   1.404       .  A
C1489      C1494   1.407       .  A
C1490      C1491   1.410       .  A
C1490      H1503   1.083       .  S
C1491      C1492   1.411       .  A
C1491      H1504   1.083       .  S
C1492      C1493   1.407       .  A
C1492      C1495   1.503       .  S
C1493      C1494   1.403       .  A
C1493      H1505   1.081       .  S
C1494      H1506   1.083       .  S
C1495      C1496   1.357       .  D
C1495      H1507   1.085       .  S
C1496      C1497   1.503       .  S
C1496      H1508   1.085       .  S
C1497      C1498   1.411       .  A
C1497      C1502   1.407       .  A
C1498      C1499   1.410       .  A
C1498      H1509   1.083       .  S
C1499      C1500   1.404       .  A
C1499      H1510   1.083       .  S
C1500      C1501   1.408       .  A
C1501      C1502   1.402       .  A
C1501      H1511   1.083       .  S
C1502      H1512   1.082       .  S
C1513      C1514   1.404       .  A
C1513      C1518   1.408       .  A
C1514      C1515   1.407       .  A
C1514      H1527   1.083       .  S
C1515      C1516   1.410       .  A
C1515      H1528   1.083       .  S
C1516      C1517   1.406       .  A
C1516      C1519   1.498       .  S
C1517      C1518   1.401       .  A
C1517      H1529   1.082       .  S
C1518      H1530   1.083       .  S
C1519      C1520   1.355   1_455  D
C1519      H1531   1.086       .  S
C1520      C1521   1.498       .  S
C1520      H1532   1.085       .  S
C1521      C1522   1.410       .  A
C1521      C1526   1.406       .  A
C1522      C1523   1.410       .  A
C1522      H1533   1.083       .  S
C1523      C1524   1.405       .  A
C1523      H1534   1.083       .  S
C1524      C1525   1.407       .  A
C1525      C1526   1.399       .  A
C1525      H1535   1.083       .  S
C1526      H1536   1.082       .  S
C1537      C1538   1.404       .  A
C1537      C1542   1.408       .  A
C1538      C1539   1.406       .  A
C1538      H1551   1.083       .  S
C1539      C1540   1.409       .  A
C1539      H1552   1.083       .  S
C1540      C1541   1.406       .  A
C1540      C1543   1.494       .  S
C1541      C1542   1.398       .  A
C1541      H1553   1.081       .  S
C1542      H1554   1.083       .  S
C1543      C1544   1.353       .  D
C1543      H1555   1.086       .  S
C1544      C1545   1.494       .  S
C1544      H1556   1.085       .  S
C1545      C1546   1.408       .  A
C1545      C1550   1.406       .  A
C1546      C1547   1.406       .  A
C1546      H1557   1.083       .  S
C1547      C1548   1.405       .  A
C1547      H1558   1.083       .  S
C1548      C1549   1.406       .  A
C1549      C1550   1.397       .  A
C1549      H1559   1.083       .  S
C1550      H1560   1.082       .  S
C1561      C1562   1.404       .  A
C1561      C1566   1.405       .  A
C1562      C1563   1.408       .  A
C1562      H1575   1.083       .  S
C1563      C1564   1.409       .  A
C1563      H1576   1.083       .  S
C1564      C1565   1.409       .  A
C1564      C1567   1.501       .  S
C1565      C1566   1.400       .  A
C1565      H1577   1.081       .  S
C1566      H1578   1.084       .  S
C1567      C1568   1.353   1_455  D
C1567      H1579   1.084   1_455  S
C1568      C1569   1.501       .  S
C1568      H1580   1.085       .  S
C1569      C1570   1.406       .  A
C1569      C1574   1.414       .  A
C1570      C1571   1.398       .  A
C1570      H1581   1.083       .  S
C1571      C1572   1.403       .  A
C1571      H1582   1.084       .  S
C1572      C1573   1.405       .  A
C1573      C1574   1.409       .  A
C1573      H1583   1.083       .  S
C1574      H1584   1.080       .  S
C1585      C1586   1.405       .  A
C1585      C1590   1.407       .  A
C1586      C1587   1.409       .  A
C1586      H1599   1.083       .  S
C1587      C1588   1.411       .  A
C1587      H1600   1.083       .  S
C1588      C1589   1.407       .  A
C1588      C1591   1.499       .  S
C1589      C1590   1.400       .  A
C1589      H1601   1.081       .  S
C1590      H1602   1.083       .  S
C1591      C1592   1.356   1_554  D
C1591      H1603   1.085       .  S
C1592      C1593   1.500       .  S
C1592      H1604   1.085       .  S
C1593      C1594   1.411       .  A
C1593      C1598   1.406       .  A
C1594      C1595   1.409       .  A
C1594      H1605   1.083       .  S
C1595      C1596   1.405       .  A
C1595      H1606   1.083       .  S
C1596      C1597   1.408       .  A
C1597      C1598   1.398       .  A
C1597      H1607   1.083       .  S
C1598      H1608   1.081       .  S
C1609      C1610   1.403       .  A
C1609      C1614   1.406       .  A
C1610      C1611   1.406       .  A
C1610      H1623   1.083       .  S
C1611      C1612   1.410       .  A
C1611      H1624   1.083       .  S
C1612      C1613   1.408       .  A
C1612      C1615   1.499       .  S
C1613      C1614   1.400       .  A
C1613      H1625   1.081       .  S
C1614      H1626   1.083       .  S
C1615      C1616   1.355   1_455  D
C1615      H1627   1.085       .  S
C1616      C1617   1.498       .  S
C1616      H1628   1.085       .  S
C1617      C1618   1.410       .  A
C1617      C1622   1.407       .  A
C1618      C1619   1.408       .  A
C1618      H1629   1.083       .  S
C1619      C1620   1.404       .  A
C1619      H1630   1.083       .  S
C1620      C1621   1.406       .  A
C1621      C1622   1.398       .  A
C1621      H1631   1.084       .  S
C1622      H1632   1.081       .  S
C1633      C1634   1.405       .  A
C1633      C1638   1.409       .  A
C1634      C1635   1.409       .  A
C1634      H1647   1.083       .  S
C1635      C1636   1.411       .  A
C1635      H1648   1.083       .  S
C1636      C1637   1.406       .  A
C1636      C1639   1.499       .  S
C1637      C1638   1.398       .  A
C1637      H1649   1.081       .  S
C1638      H1650   1.083       .  S
C1639      C1640   1.356       .  D
C1639      H1651   1.085       .  S
C1640      C1641   1.499       .  S
C1640      H1652   1.085       .  S
C1641      C1642   1.410       .  A
C1641      C1646   1.407       .  A
C1642      C1643   1.406       .  A
C1642      H1653   1.083       .  S
C1643      C1644   1.403       .  A
C1643      H1654   1.083       .  S
C1644      C1645   1.407       .  A
C1645      C1646   1.400       .  A
C1645      H1655   1.084       .  S
C1646      H1656   1.081       .  S
C1657      C1658   1.400       .  A
C1657      C1662   1.402       .  A
C1658      C1659   1.395       .  A
C1658      H1671   1.083       .  S
C1659      C1660   1.406       .  A
C1659      H1672   1.083       .  S
C1660      C1661   1.411       .  A
C1660      C1663   1.489       .  S
C1661      C1662   1.399       .  A
C1661      H1673   1.079       .  S
C1662      H1674   1.083       .  S
C1663      C1664   1.348       .  D
C1663      H1675   1.085       .  S
C1664      C1665   1.485       .  S
C1664      H1676   1.083       .  S
C1665      C1666   1.402       .  A
C1665      C1670   1.408       .  A
C1666      C1667   1.397       .  A
C1666      H1677   1.084       .  S
C1667      C1668   1.407       .  A
C1667      H1678   1.083       .  S
C1668      C1669   1.406       .  A
C1669      C1670   1.399       .  A
C1669      H1679   1.083       .  S
C1670      H1680   1.082       .  S
C1681      C1682   1.405       .  A
C1681      C1686   1.405       .  A
C1682      C1683   1.395       .  A
C1682      H1695   1.083       .  S
C1683      C1684   1.403       .  A
C1683      H1696   1.084       .  S
C1684      C1685   1.408       .  A
C1684      C1687   1.484       .  S
C1685      C1686   1.397       .  A
C1685      H1697   1.081       .  S
C1686      H1698   1.083       .  S
C1687      C1688   1.346       .  D
C1687      H1699   1.085       .  S
C1688      C1689   1.482       .  S
C1688      H1700   1.084       .  S
C1689      C1690   1.404       .  A
C1689      C1694   1.409       .  A
C1690      C1691   1.397       .  A
C1690      H1701   1.083       .  S
C1691      C1692   1.401       .  A
C1691      H1702   1.083       .  S
C1692      C1693   1.399       .  A
C1693      C1694   1.395       .  A
C1693      H1703   1.083       .  S
C1694      H1704   1.081       .  S
C1705      C1706   1.402       .  A
C1705      C1710   1.401       .  A
C1706      C1707   1.398   1_565  A
C1706      H1719   1.083       .  S
C1707      C1708   1.404       .  A
C1707      H1720   1.083       .  S
C1708      C1709   1.409   1_545  A
C1708      C1711   1.485       .  S
C1709      C1710   1.396       .  A
C1709      H1721   1.081       .  S
C1710      H1722   1.083       .  S
C1711      C1712   1.347       .  D
C1711      H1723   1.084       .  S
C1712      C1713   1.487       .  S
C1712      H1724   1.086       .  S
C1713      C1714   1.403       .  A
C1713      C1718   1.409       .  A
C1714      C1715   1.397       .  A
C1714      H1725   1.083       .  S
C1715      C1716   1.406       .  A
C1715      H1726   1.083       .  S
C1716      C1717   1.406       .  A
C1717      C1718   1.397       .  A
C1717      H1727   1.083       .  S
C1718      H1728   1.080       .  S
C1729      C1730   1.400       .  A
C1729      C1734   1.401       .  A
C1730      C1731   1.396       .  A
C1730      H1743   1.083       .  S
C1731      C1732   1.406       .  A
C1731      H1744   1.083       .  S
C1732      C1733   1.412       .  A
C1732      C1735   1.491       .  S
C1733      C1734   1.400       .  A
C1733      H1745   1.079       .  S
C1734      H1746   1.083       .  S
C1735      C1736   1.349       .  D
C1735      H1747   1.085       .  S
C1736      C1737   1.486   1_565  S
C1736      H1748   1.082       .  S
C1737      C1738   1.407       .  A
C1737      C1742   1.403       .  A
C1738      C1739   1.398       .  A
C1738      H1749   1.082       .  S
C1739      C1740   1.407       .  A
C1739      H1750   1.083       .  S
C1740      C1741   1.406       .  A
C1741      C1742   1.398       .  A
C1741      H1751   1.083       .  S
C1742      H1752   1.083       .  S
C1753      C1754   1.401       .  A
C1753      C1758   1.402       .  A
C1754      C1755   1.396       .  A
C1754      H1767   1.083       .  S
C1755      C1756   1.404       .  A
C1755      H1768   1.083       .  S
C1756      C1757   1.409       .  A
C1756      C1759   1.485       .  S
C1757      C1758   1.397       .  A
C1757      H1769   1.081       .  S
C1758      H1770   1.083       .  S
C1759      C1760   1.348       .  D
C1759      H1771   1.082       .  S
C1760      C1761   1.490       .  S
C1760      H1772   1.085       .  S
C1761      C1762   1.405       .  A
C1761      C1766   1.410       .  A
C1762      C1763   1.397       .  A
C1762      H1773   1.083       .  S
C1763      C1764   1.405       .  A
C1763      H1774   1.083       .  S
C1764      C1765   1.405       .  A
C1765      C1766   1.395       .  A
C1765      H1775   1.083       .  S
C1766      H1776   1.078       .  S
C1777      C1778   1.406       .  A
C1777      C1782   1.405       .  A
C1778      C1779   1.394       .  A
C1778      H1791   1.083       .  S
C1779      C1780   1.402       .  A
C1779      H1792   1.084       .  S
C1780      C1781   1.410       .  A
C1780      C1783   1.487   1_545  S
C1781      C1782   1.399       .  A
C1781      H1793   1.080       .  S
C1782      H1794   1.083       .  S
C1783      C1784   1.346       .  D
C1783      H1795   1.086       .  S
C1784      C1785   1.481       .  S
C1784      H1796   1.083       .  S
C1785      C1786   1.403       .  A
C1785      C1790   1.409       .  A
C1786      C1787   1.397       .  A
C1786      H1797   1.083       .  S
C1787      C1788   1.401       .  A
C1787      H1798   1.083       .  S
C1788      C1789   1.400       .  A
C1789      C1790   1.397       .  A
C1789      H1799   1.083       .  S
C1790      H1800   1.082       .  S
C1801      C1802   1.400       .  A
C1801      C1806   1.403       .  A
C1802      C1803   1.395       .  A
C1802      H1815   1.083       .  S
C1803      C1804   1.405       .  A
C1803      H1816   1.083       .  S
C1804      C1805   1.408       .  A
C1804      C1807   1.484       .  S
C1805      C1806   1.398       .  A
C1805      H1817   1.081       .  S
C1806      H1818   1.083       .  S
C1807      C1808   1.348       .  D
C1807      H1819   1.084       .  S
C1808      C1809   1.487       .  S
C1808      H1820   1.085       .  S
C1809      C1810   1.405       .  A
C1809      C1814   1.407       .  A
C1810      C1811   1.400       .  A
C1810      H1821   1.083       .  S
C1811      C1812   1.406       .  A
C1811      H1822   1.083       .  S
C1812      C1813   1.405       .  A
C1813      C1814   1.395       .  A
C1813      H1823   1.083       .  S
C1814      H1824   1.081       .  S
C1825      C1826   1.400       .  A
C1825      C1830   1.401       .  A
C1826      C1827   1.394       .  A
C1826      H1839   1.083       .  S
C1827      C1828   1.405   1_565  A
C1827      H1840   1.083       .  S
C1828      C1829   1.412       .  A
C1828      C1831   1.489       .  S
C1829      C1830   1.400   1_545  A
C1829      H1841   1.079       .  S
C1830      H1842   1.083       .  S
C1831      C1832   1.347       .  D
C1831      H1843   1.085       .  S
C1832      C1833   1.486       .  S
C1832      H1844   1.083       .  S
C1833      C1834   1.401       .  A
C1833      C1838   1.409       .  A
C1834      C1835   1.396       .  A
C1834      H1845   1.084       .  S
C1835      C1836   1.407       .  A
C1835      H1846   1.083       .  S
C1836      C1837   1.405       .  A
C1837      C1838   1.399       .  A
C1837      H1847   1.083       .  S
C1838      H1848   1.081       .  S
C1849      C1850   1.403       .  A
C1849      C1854   1.402       .  A
C1850      C1851   1.397       .  A
C1850      H1863   1.083       .  S
C1851      C1852   1.403       .  A
C1851      H1864   1.083       .  S
C1852      C1853   1.408       .  A
C1852      C1855   1.482       .  S
C1853      C1854   1.397       .  A
C1853      H1865   1.082       .  S
C1854      H1866   1.083       .  S
C1855      C1856   1.346       .  D
C1855      H1867   1.085       .  S
C1856      C1857   1.483       .  S
C1856      H1868   1.086       .  S
C1857      C1858   1.403       .  A
C1857      C1862   1.406       .  A
C1858      C1859   1.397       .  A
C1858      H1869   1.083       .  S
C1859      C1860   1.405       .  A
C1859      H1870   1.083       .  S
C1860      C1861   1.407       .  A
C1861      C1862   1.398       .  A
C1861      H1871   1.083       .  S
C1862      H1872   1.082       .  S
C1873      C1874   1.402       .  A
C1873      C1878   1.400       .  A
C1874      C1875   1.395       .  A
C1874      H1887   1.083       .  S
C1875      C1876   1.402       .  A
C1875      H1888   1.083       .  S
C1876      C1877   1.409       .  A
C1876      C1879   1.478       .  S
C1877      C1878   1.395       .  A
C1877      H1889   1.082       .  S
C1878      H1890   1.083       .  S
C1879      C1880   1.345       .  D
C1879      H1891   1.083       .  S
C1880      C1881   1.484       .  S
C1880      H1892   1.086       .  S
C1881      C1882   1.404       .  A
C1881      C1886   1.408       .  A
C1882      C1883   1.396       .  A
C1882      H1893   1.083       .  S
C1883      C1884   1.404       .  A
C1883      H1894   1.083       .  S
C1884      C1885   1.405       .  A
C1885      C1886   1.393       .  A
C1885      H1895   1.083       .  S
C1886      H1896   1.079       .  S
C1897      C1898   1.400       .  A
C1897      C1902   1.399       .  A
C1898      C1899   1.396       .  A
C1898      H1911   1.083       .  S
C1899      C1900   1.403       .  A
C1899      H1912   1.083       .  S
C1900      C1901   1.409       .  A
C1900      C1903   1.481   1_565  S
C1901      C1902   1.395       .  A
C1901      H1913   1.081       .  S
C1902      H1914   1.083       .  S
C1903      C1904   1.345       .  D
C1903      H1915   1.085       .  S
C1904      C1905   1.480       .  S
C1904      H1916   1.085       .  S
C1905      C1906   1.401       .  A
C1905      C1910   1.407       .  A
C1906      C1907   1.394       .  A
C1906      H1917   1.084       .  S
C1907      C1908   1.406       .  A
C1907      H1918   1.083       .  S
C1908      C1909   1.405       .  A
C1909      C1910   1.397       .  A
C1909      H1919   1.083       .  S
C1910      H1920   1.081       .  S
C1921      C1922   1.404       .  A
C1921      C1926   1.401       .  A
C1922      C1923   1.397   1_565  A
C1922      H1935   1.083       .  S
C1923      C1924   1.402       .  A
C1923      H1936   1.083       .  S
C1924      C1925   1.408   1_545  A
C1924      C1927   1.479       .  S
C1925      C1926   1.394       .  A
C1925      H1937   1.083       .  S
C1926      H1938   1.083       .  S
C1927      C1928   1.345       .  D
C1927      H1939   1.083       .  S
C1928      C1929   1.483       .  S
C1928      H1940   1.087       .  S
C1929      C1930   1.402       .  A
C1929      C1934   1.409       .  A
C1930      C1931   1.392       .  A
C1930      H1941   1.084       .  S
C1931      C1932   1.405       .  A
C1931      H1942   1.083       .  S
C1932      C1933   1.406       .  A
C1933      C1934   1.399       .  A
C1933      H1943   1.083       .  S
C1934      H1944   1.080       .  S
C1945      C1946   1.406       .  A
C1945      C1950   1.405       .  A
C1946      C1947   1.399       .  A
C1946      H1959   1.083       .  S
C1947      C1948   1.402       .  A
C1947      H1960   1.083       .  S
C1948      C1949   1.406       .  A
C1948      C1951   1.482       .  S
C1949      C1950   1.394       .  A
C1949      H1961   1.082       .  S
C1950      H1962   1.083       .  S
C1951      C1952   1.348       .  D
C1951      H1963   1.083       .  S
C1952      C1953   1.486       .  S
C1952      H1964   1.086       .  S
C1953      C1954   1.405       .  A
C1953      C1958   1.410       .  A
C1954      C1955   1.395       .  A
C1954      H1965   1.083       .  S
C1955      C1956   1.400       .  A
C1955      H1966   1.083       .  S
C1956      C1957   1.402       .  A
C1957      C1958   1.398       .  A
C1957      H1967   1.083       .  S
C1958      H1968   1.079       .  S
C1969      C1970   1.404       .  A
C1969      C1974   1.405       .  A
C1970      C1971   1.397       .  A
C1970      H1983   1.083       .  S
C1971      C1972   1.403       .  A
C1971      H1984   1.083       .  S
C1972      C1973   1.405       .  A
C1972      C1975   1.479       .  S
C1973      C1974   1.394       .  A
C1973      H1985   1.082       .  S
C1974      H1986   1.083       .  S
C1975      C1976   1.347       .  D
C1975      H1987   1.085       .  S
C1976      C1977   1.480       .  S
C1976      H1988   1.085       .  S
C1977      C1978   1.405       .  A
C1977      C1982   1.407       .  A
C1978      C1979   1.398       .  A
C1978      H1989   1.083       .  S
C1979      C1980   1.401       .  A
C1979      H1990   1.083       .  S
C1980      C1981   1.400       .  A
C1981      C1982   1.392       .  A
C1981      H1991   1.084       .  S
C1982      H1992   1.081       .  S
C1993      C1994   1.400       .  A
C1993      C1998   1.400       .  A
C1994      C1995   1.397       .  A
C1994      H2007   1.083       .  S
C1995      C1996   1.405       .  A
C1995      H2008   1.083       .  S
C1996      C1997   1.408       .  A
C1996      C1999   1.482       .  S
C1997      C1998   1.395       .  A
C1997      H2009   1.081       .  S
C1998      H2010   1.083       .  S
C1999      C2000   1.347       .  D
C1999      H2011   1.085       .  S
C2000      C2001   1.483       .  S
C2000      H2012   1.085       .  S
C2001      C2002   1.402       .  A
C2001      C2006   1.407       .  A
C2002      C2003   1.396       .  A
C2002      H2013   1.083       .  S
C2003      C2004   1.406       .  A
C2003      H2014   1.083       .  S
C2004      C2005   1.406       .  A
C2005      C2006   1.396       .  A
C2005      H2015   1.083       .  S
C2006      H2016   1.081       .  S
C2017      C2018   1.400       .  A
C2017      C2022   1.401       .  A
C2018      C2019   1.396       .  A
C2018      H2031   1.083       .  S
C2019      C2020   1.405       .  A
C2019      H2032   1.083       .  S
C2020      C2021   1.410       .  A
C2020      C2023   1.486       .  S
C2021      C2022   1.397       .  A
C2021      H2033   1.080       .  S
C2022      H2034   1.083       .  S
C2023      C2024   1.347       .  D
C2023      H2035   1.086       .  S
C2024      C2025   1.482       .  S
C2024      H2036   1.083       .  S
C2025      C2026   1.401       .  A
C2025      C2030   1.407       .  A
C2026      C2027   1.396       .  A
C2026      H2037   1.083       .  S
C2027      C2028   1.407       .  A
C2027      H2038   1.083       .  S
C2028      C2029   1.406       .  A
C2029      C2030   1.397       .  A
C2029      H2039   1.083       .  S
C2030      H2040   1.082       .  S
C2041      C2042   1.401       .  A
C2041      C2046   1.403       .  A
C2042      C2043   1.395       .  A
C2042      H2055   1.083       .  S
C2043      C2044   1.404       .  A
C2043      H2056   1.083       .  S
C2044      C2045   1.409       .  A
C2044      C2047   1.485       .  S
C2045      C2046   1.400       .  A
C2045      H2057   1.081       .  S
C2046      H2058   1.083       .  S
C2047      C2048   1.348       .  D
C2047      H2059   1.085       .  S
C2048      C2049   1.486       .  S
C2048      H2060   1.085       .  S
C2049      C2050   1.404       .  A
C2049      C2054   1.407       .  A
C2050      C2051   1.399       .  A
C2050      H2061   1.083       .  S
C2051      C2052   1.406       .  A
C2051      H2062   1.083       .  S
C2052      C2053   1.406       .  A
C2053      C2054   1.396       .  A
C2053      H2063   1.083       .  S
C2054      H2064   1.082       .  S
C2065      C2066   1.402       .  A
C2065      C2070   1.399       .  A
C2066      C2067   1.399       .  A
C2066      H2079   1.083       .  S
C2067      C2068   1.407   1_565  A
C2067      H2080   1.083       .  S
C2068      C2069   1.410   1_545  A
C2068      C2071   1.490       .  S
C2069      C2070   1.394       .  A
C2069      H2081   1.079   1_565  S
C2070      H2082   1.083       .  S
C2071      C2072   1.350       .  D
C2071      H2083   1.083       .  S
C2072      C2073   1.487       .  S
C2072      H2084   1.082       .  S
C2073      C2074   1.404       .  A
C2073      C2078   1.408       .  A
C2074      C2075   1.395       .  A
C2074      H2085   1.083       .  S
C2075      C2076   1.404       .  A
C2075      H2086   1.083       .  S
C2076      C2077   1.407       .  A
C2077      C2078   1.398       .  A
C2077      H2087   1.083       .  S
C2078      H2088   1.080       .  S
C2089      C2090   1.405       .  A
C2089      C2094   1.405       .  A
C2090      C2091   1.394       .  A
C2090      H2103   1.083       .  S
C2091      C2092   1.403       .  A
C2091      H2104   1.084       .  S
C2092      C2093   1.410       .  A
C2092      C2095   1.487       .  S
C2093      C2094   1.399       .  A
C2093      H2105   1.079       .  S
C2094      H2106   1.083       .  S
C2095      C2096   1.346       .  D
C2095      H2107   1.086       .  S
C2096      C2097   1.483       .  S
C2096      H2108   1.083       .  S
C2097      C2098   1.403       .  A
C2097      C2102   1.408       .  A
C2098      C2099   1.398       .  A
C2098      H2109   1.083       .  S
C2099      C2100   1.403       .  A
C2099      H2110   1.083       .  S
C2100      C2101   1.401       .  A
C2101      C2102   1.394       .  A
C2101      H2111   1.083       .  S
C2102      H2112   1.082       .  S
C2113      C2114   1.407       .  A
C2113      C2118   1.405       .  A
C2114      C2115   1.397       .  A
C2114      H2127   1.083       .  S
C2115      C2116   1.403   1_545  A
C2115      H2128   1.084       .  S
C2116      C2117   1.411   1_565  A
C2116      C2119   1.491       .  S
C2117      C2118   1.401       .  A
C2117      H2129   1.080   1_545  S
C2118      H2130   1.083       .  S
C2119      C2120   1.348       .  D
C2119      H2131   1.085       .  S
C2120      C2121   1.488       .  S
C2120      H2132   1.083       .  S
C2121      C2122   1.405       .  A
C2121      C2126   1.410       .  A
C2122      C2123   1.398       .  A
C2122      H2133   1.083       .  S
C2123      C2124   1.401       .  A
C2123      H2134   1.083       .  S
C2124      C2125   1.403       .  A
C2125      C2126   1.399       .  A
C2125      H2135   1.083       .  S
C2126      H2136   1.081       .  S
C2137      C2138   1.401       .  A
C2137      C2142   1.401       .  A
C2138      C2139   1.398       .  A
C2138      H2151   1.083       .  S
C2139      C2140   1.405       .  A
C2139      H2152   1.083       .  S
C2140      C2141   1.411       .  A
C2140      C2143   1.490       .  S
C2141      C2142   1.400       .  A
C2141      H2153   1.081       .  S
C2142      H2154   1.083       .  S
C2143      C2144   1.348       .  D
C2143      H2155   1.083       .  S
C2144      C2145   1.491       .  S
C2144      H2156   1.085       .  S
C2145      C2146   1.402       .  A
C2145      C2150   1.411       .  A
C2146      C2147   1.395       .  A
C2146      H2157   1.084       .  S
C2147      C2148   1.408       .  A
C2147      H2158   1.083       .  S
C2148      C2149   1.406       .  A
C2149      C2150   1.403       .  A
C2149      H2159   1.083       .  S
C2150      H2160   1.080       .  S
C2161      C2162   1.400       .  A
C2161      C2166   1.401       .  A
C2162      C2163   1.396       .  A
C2162      H2175   1.083       .  S
C2163      C2164   1.405       .  A
C2163      H2176   1.083       .  S
C2164      C2165   1.408       .  A
C2164      C2167   1.484       .  S
C2165      C2166   1.396       .  A
C2165      H2177   1.081       .  S
C2166      H2178   1.083       .  S
C2167      C2168   1.348       .  D
C2167      H2179   1.084       .  S
C2168      C2169   1.484       .  S
C2168      H2180   1.085       .  S
C2169      C2170   1.403       .  A
C2169      C2174   1.407       .  A
C2170      C2171   1.396       .  A
C2170      H2181   1.084       .  S
C2171      C2172   1.406       .  A
C2171      H2182   1.083       .  S
C2172      C2173   1.405       .  A
C2173      C2174   1.396       .  A
C2173      H2183   1.083       .  S
C2174      H2184   1.081       .  S
C2185      C2186   1.404       .  A
C2185      C2190   1.405       .  A
C2186      C2187   1.396       .  A
C2186      H2199   1.083       .  S
C2187      C2188   1.404       .  A
C2187      H2200   1.084       .  S
C2188      C2189   1.409       .  A
C2188      C2191   1.488       .  S
C2189      C2190   1.398       .  A
C2189      H2201   1.079       .  S
C2190      H2202   1.083       .  S
C2191      C2192   1.348       .  D
C2191      H2203   1.085       .  S
C2192      C2193   1.486       .  S
C2192      H2204   1.082       .  S
C2193      C2194   1.406       .  A
C2193      C2198   1.408       .  A
C2194      C2195   1.400       .  A
C2194      H2205   1.083       .  S
C2195      C2196   1.401       .  A
C2195      H2206   1.083       .  S
C2196      C2197   1.400       .  A
C2197      C2198   1.393       .  A
C2197      H2207   1.084       .  S
C2198      H2208   1.081       .  S
C2209      C2210   1.405       .  A
C2209      C2214   1.405       .  A
C2210      C2211   1.394       .  A
C2210      H2223   1.083       .  S
C2211      C2212   1.403       .  A
C2211      H2224   1.084       .  S
C2212      C2213   1.410       .  A
C2212      C2215   1.488       .  S
C2213      C2214   1.399       .  A
C2213      H2225   1.079       .  S
C2214      H2226   1.083       .  S
C2215      C2216   1.347       .  D
C2215      H2227   1.086       .  S
C2216      C2217   1.484       .  S
C2216      H2228   1.083       .  S
C2217      C2218   1.404       .  A
C2217      C2222   1.409       .  A
C2218      C2219   1.399       .  A
C2218      H2229   1.083       .  S
C2219      C2220   1.402       .  A
C2219      H2230   1.083       .  S
C2220      C2221   1.399       .  A
C2221      C2222   1.396       .  A
C2221      H2231   1.083       .  S
C2222      H2232   1.082       .  S
C2233      C2234   1.401       .  A
C2233      C2238   1.403       .  A
C2234      C2235   1.395       .  A
C2234      H2247   1.083       .  S
C2235      C2236   1.403       .  A
C2235      H2248   1.083       .  S
C2236      C2237   1.410       .  A
C2236      C2239   1.485       .  S
C2237      C2238   1.402       .  A
C2237      H2249   1.082       .  S
C2238      H2250   1.083       .  S
C2239      C2240   1.347       .  D
C2239      H2251   1.083       .  S
C2240      C2241   1.492       .  S
C2240      H2252   1.086       .  S
C2241      C2242   1.403       .  A
C2241      C2246   1.411       .  A
C2242      C2243   1.396       .  A
C2242      H2253   1.084       .  S
C2243      C2244   1.407       .  A
C2243      H2254   1.083       .  S
C2244      C2245   1.404       .  A
C2245      C2246   1.400       .  A
C2245      H2255   1.083       .  S
C2246      H2256   1.079       .  S
C2257      C2258   1.403       .  A
C2257      C2262   1.400       .  A
C2258      C2259   1.397       .  A
C2258      H2271   1.083       .  S
C2259      C2260   1.403       .  A
C2259      H2272   1.083       .  S
C2260      C2261   1.408       .  A
C2260      C2263   1.482       .  S
C2261      C2262   1.394       .  A
C2261      H2273   1.082       .  S
C2262      H2274   1.083       .  S
C2263      C2264   1.346       .  D
C2263      H2275   1.084       .  S
C2264      C2265   1.484       .  S
C2264      H2276   1.086       .  S
C2265      C2266   1.403       .  A
C2265      C2270   1.408       .  A
C2266      C2267   1.396       .  A
C2266      H2277   1.084       .  S
C2267      C2268   1.406       .  A
C2267      H2278   1.083       .  S
C2268      C2269   1.405       .  A
C2269      C2270   1.397       .  A
C2269      H2279   1.083       .  S
C2270      H2280   1.080       .  S
C2281      C2282   1.405       .  A
C2281      C2286   1.407       .  A
C2282      C2283   1.396       .  A
C2282      H2295   1.083       .  S
C2283      C2284   1.402       .  A
C2283      H2296   1.083       .  S
C2284      C2285   1.406       .  A
C2284      C2287   1.481       .  S
C2285      C2286   1.396       .  A
C2285      H2297   1.082       .  S
C2286      H2298   1.083       .  S
C2287      C2288   1.346       .  D
C2287      H2299   1.085       .  S
C2288      C2289   1.482       .  S
C2288      H2300   1.085       .  S
C2289      C2290   1.404       .  A
C2289      C2294   1.408       .  A
C2290      C2291   1.396       .  A
C2290      H2301   1.083       .  S
C2291      C2292   1.401       .  A
C2291      H2302   1.083       .  S
C2292      C2293   1.401       .  A
C2293      C2294   1.395       .  A
C2293      H2303   1.083       .  S
C2294      H2304   1.081       .  S
C2305      C2306   1.401       .  A
C2305      C2310   1.401       .  A
C2306      C2307   1.399       .  A
C2306      H2319   1.083       .  S
C2307      C2308   1.404       .  A
C2307      H2320   1.083       .  S
C2308      C2309   1.409       .  A
C2308      C2311   1.487       .  S
C2309      C2310   1.398       .  A
C2309      H2321   1.082       .  S
C2310      H2322   1.083       .  S
C2311      C2312   1.348       .  D
C2311      H2323   1.084       .  S
C2312      C2313   1.489       .  S
C2312      H2324   1.085       .  S
C2313      C2314   1.403       .  A
C2313      C2318   1.408       .  A
C2314      C2315   1.397       .  A
C2314      H2325   1.083       .  S
C2315      C2316   1.405       .  A
C2315      H2326   1.083       .  S
C2316      C2317   1.407       .  A
C2317      C2318   1.399       .  A
C2317      H2327   1.083       .  S
C2318      H2328   1.081       .  S
C2329      C2330   1.405       .  A
C2329      C2334   1.406       .  A
C2330      C2331   1.396       .  A
C2330      H2343   1.083       .  S
C2331      C2332   1.403       .  A
C2331      H2344   1.083       .  S
C2332      C2333   1.407       .  A
C2332      C2335   1.483       .  S
C2333      C2334   1.395       .  A
C2333      H2345   1.081       .  S
C2334      H2346   1.083       .  S
C2335      C2336   1.347       .  D
C2335      H2347   1.083       .  S
C2336      C2337   1.485       .  S
C2336      H2348   1.084       .  S
C2337      C2338   1.405       .  A
C2337      C2342   1.410       .  A
C2338      C2339   1.395       .  A
C2338      H2349   1.083       .  S
C2339      C2340   1.399       .  A
C2339      H2350   1.083       .  S
C2340      C2341   1.400       .  A
C2341      C2342   1.396       .  A
C2341      H2351   1.083       .  S
C2342      H2352   1.080       .  S
C2353      C2354   1.401       .  A
C2353      C2358   1.401       .  A
C2354      C2355   1.397       .  A
C2354      H2367   1.083       .  S
C2355      C2356   1.404       .  A
C2355      H2368   1.083       .  S
C2356      C2357   1.408       .  A
C2356      C2359   1.483       .  S
C2357      C2358   1.397       .  A
C2357      H2369   1.082       .  S
C2358      H2370   1.083       .  S
C2359      C2360   1.348       .  D
C2359      H2371   1.082       .  S
C2360      C2361   1.489       .  S
C2360      H2372   1.086       .  S
C2361      C2362   1.404       .  A
C2361      C2366   1.409       .  A
C2362      C2363   1.397       .  A
C2362      H2373   1.083       .  S
C2363      C2364   1.405       .  A
C2363      H2374   1.083       .  S
C2364      C2365   1.405       .  A
C2365      C2366   1.397       .  A
C2365      H2375   1.083       .  S
C2366      H2376   1.079       .  S
C2377      C2378   1.407       .  A
C2377      C2382   1.405       .  A
C2378      C2379   1.396       .  A
C2378      H2391   1.083       .  S
C2379      C2380   1.401       .  A
C2379      H2392   1.083       .  S
C2380      C2381   1.408       .  A
C2380      C2383   1.485       .  S
C2381      C2382   1.399       .  A
C2381      H2393   1.082       .  S
C2382      H2394   1.083       .  S
C2383      C2384   1.347       .  D
C2383      H2395   1.083       .  S
C2384      C2385   1.488       .  S
C2384      H2396   1.085       .  S
C2385      C2386   1.405       .  A
C2385      C2390   1.412       .  A
C2386      C2387   1.395       .  A
C2386      H2397   1.083       .  S
C2387      C2388   1.399       .  A
C2387      H2398   1.083       .  S
C2388      C2389   1.401       .  A
C2389      C2390   1.399       .  A
C2389      H2399   1.083       .  S
C2390      H2400   1.080       .  S
C2401      C2402   1.405       .  A
C2401      C2406   1.406       .  A
C2402      C2403   1.397       .  A
C2402      H2415   1.083       .  S
C2403      C2404   1.403       .  A
C2403      H2416   1.083       .  S
C2404      C2405   1.406       .  A
C2404      C2407   1.483       .  S
C2405      C2406   1.395       .  A
C2405      H2417   1.081       .  S
C2406      H2418   1.083       .  S
C2407      C2408   1.348       .  D
C2407      H2419   1.084       .  S
C2408      C2409   1.484       .  S
C2408      H2420   1.085       .  S
C2409      C2410   1.405       .  A
C2409      C2414   1.408       .  A
C2410      C2411   1.397       .  A
C2410      H2421   1.083       .  S
C2411      C2412   1.401       .  A
C2411      H2422   1.083       .  S
C2412      C2413   1.400       .  A
C2413      C2414   1.394       .  A
C2413      H2423   1.083       .  S
C2414      H2424   1.081       .  S
C2425      C2426   1.405       .  A
C2425      C2430   1.407       .  A
C2426      C2427   1.397       .  A
C2426      H2439   1.083       .  S
C2427      C2428   1.405       .  A
C2427      H2440   1.083       .  S
C2428      C2429   1.409       .  A
C2428      C2431   1.491       .  S
C2429      C2430   1.398       .  A
C2429      H2441   1.079       .  S
C2430      H2442   1.083       .  S
C2431      C2432   1.349       .  D
C2431      H2443   1.085       .  S
C2432      C2433   1.486       .  S
C2432      H2444   1.082       .  S
C2433      C2434   1.405       .  A
C2433      C2438   1.408       .  A
C2434      C2435   1.399       .  A
C2434      H2445   1.083       .  S
C2435      C2436   1.402       .  A
C2435      H2446   1.083       .  S
C2436      C2437   1.401       .  A
C2437      C2438   1.396       .  A
C2437      H2447   1.083       .  S
C2438      H2448   1.082       .  S
C2449      C2450   1.407       .  A
C2449      C2454   1.406       .  A
C2450      C2451   1.396       .  A
C2450      H2463   1.083       .  S
C2451      C2452   1.401       .  A
C2451      H2464   1.083       .  S
C2452      C2453   1.407       .  A
C2452      C2455   1.482       .  S
C2453      C2454   1.397       .  A
C2453      H2465   1.082       .  S
C2454      H2466   1.083       .  S
C2455      C2456   1.346       .  D
C2455      H2467   1.084       .  S
C2456      C2457   1.484       .  S
C2456      H2468   1.086       .  S
C2457      C2458   1.403       .  A
C2457      C2462   1.410       .  A
C2458      C2459   1.395       .  A
C2458      H2469   1.083       .  S
C2459      C2460   1.400       .  A
C2459      H2470   1.083       .  S
C2460      C2461   1.401       .  A
C2461      C2462   1.399       .  A
C2461      H2471   1.083       .  S
C2462      H2472   1.081       .  S
C2473      C2474   1.401       .  A
C2473      C2478   1.401       .  A
C2474      C2475   1.399       .  A
C2474      H2487   1.083       .  S
C2475      C2476   1.406       .  A
C2475      H2488   1.083       .  S
C2476      C2477   1.409       .  A
C2476      C2479   1.488       .  S
C2477      C2478   1.397       .  A
C2477      H2489   1.081       .  S
C2478      H2490   1.083       .  S
C2479      C2480   1.349       .  D
C2479      H2491   1.085       .  S
C2480      C2481   1.488       .  S
C2480      H2492   1.085       .  S
C2481      C2482   1.403       .  A
C2481      C2486   1.408       .  A
C2482      C2483   1.396       .  A
C2482      H2493   1.083       .  S
C2483      C2484   1.405       .  A
C2483      H2494   1.083       .  S
C2484      C2485   1.407       .  A
C2485      C2486   1.400       .  A
C2485      H2495   1.083       .  S
C2486      H2496   1.081       .  S
C2497      C2498   1.399       .  A
C2497      C2502   1.401       .  A
C2498      C2499   1.396       .  A
C2498      H2511   1.083       .  S
C2499      C2500   1.405       .  A
C2499      H2512   1.083       .  S
C2500      C2501   1.410       .  A
C2500      C2503   1.488       .  S
C2501      C2502   1.398       .  A
C2501      H2513   1.080       .  S
C2502      H2514   1.083       .  S
C2503      C2504   1.348       .  D
C2503      H2515   1.083       .  S
C2504      C2505   1.489       .  S
C2504      H2516   1.084       .  S
C2505      C2506   1.404       .  A
C2505      C2510   1.409       .  A
C2506      C2507   1.396       .  A
C2506      H2517   1.083       .  S
C2507      C2508   1.405       .  A
C2507      H2518   1.083       .  S
C2508      C2509   1.406       .  A
C2509      C2510   1.399       .  A
C2509      H2519   1.083       .  S
C2510      H2520   1.080       .  S
C2521      C2522   1.399       .  A
C2521      C2526   1.399       .  A
C2522      C2523   1.394       .  A
C2522      H2535   1.083       .  S
C2523      C2524   1.404       .  A
C2523      H2536   1.083       .  S
C2524      C2525   1.410       .  A
C2524      C2527   1.483       .  S
C2525      C2526   1.396       .  A
C2525      H2537   1.080       .  S
C2526      H2538   1.083       .  S
C2527      C2528   1.345       .  D
C2527      H2539   1.086       .  S
C2528      C2529   1.479       .  S
C2528      H2540   1.083       .  S
C2529      C2530   1.401       .  A
C2529      C2534   1.406       .  A
C2530      C2531   1.395       .  A
C2530      H2541   1.083       .  S
C2531      C2532   1.405       .  A
C2531      H2542   1.083       .  S
C2532      C2533   1.406       .  A
C2533      C2534   1.395       .  A
C2533      H2543   1.083       .  S
C2534      H2544   1.082       .  S
C2545      C2546   1.400       .  A
C2545      C2550   1.402       .  A
C2546      C2547   1.398       .  A
C2546      H2559   1.083       .  S
C2547      C2548   1.407       .  A
C2547      H2560   1.083       .  S
C2548      C2549   1.411       .  A
C2548      C2551   1.492       .  S
C2549      C2550   1.399       .  A
C2549      H2561   1.079       .  S
C2550      H2562   1.083       .  S
C2551      C2552   1.350       .  D
C2551      H2563   1.085       .  S
C2552      C2553   1.488       .  S
C2552      H2564   1.082       .  S
C2553      C2554   1.403       .  A
C2553      C2558   1.408       .  A
C2554      C2555   1.397       .  A
C2554      H2565   1.083       .  S
C2555      C2556   1.407       .  A
C2555      H2566   1.083       .  S
C2556      C2557   1.407       .  A
C2557      C2558   1.399       .  A
C2557      H2567   1.083       .  S
C2558      H2568   1.081       .  S
C2569      C2570   1.404       .  A
C2569      C2574   1.404       .  A
C2570      C2571   1.396       .  A
C2570      H2583   1.083       .  S
C2571      C2572   1.404       .  A
C2571      H2584   1.083       .  S
C2572      C2573   1.410       .  A
C2572      C2575   1.488       .  S
C2573      C2574   1.401       .  A
C2573      H2585   1.081       .  S
C2574      H2586   1.083       .  S
C2575      C2576   1.348       .  D
C2575      H2587   1.085       .  S
C2576      C2577   1.488       .  S
C2576      H2588   1.085       .  S
C2577      C2578   1.403       .  A
C2577      C2582   1.408       .  A
C2578      C2579   1.398       .  A
C2578      H2589   1.083       .  S
C2579      C2580   1.406       .  A
C2579      H2590   1.083       .  S
C2580      C2581   1.406       .  A
C2581      C2582   1.398       .  A
C2581      H2591   1.083       .  S
C2582      H2592   1.081       .  S
C2593      C2594   1.399       .  A
C2593      C2598   1.400       .  A
C2594      C2595   1.396       .  A
C2594      H2607   1.083       .  S
C2595      C2596   1.405       .  A
C2595      H2608   1.083       .  S
C2596      C2597   1.410       .  A
C2596      C2599   1.486       .  S
C2597      C2598   1.399       .  A
C2597      H2609   1.080       .  S
C2598      H2610   1.083       .  S
C2599      C2600   1.348       .  D
C2599      H2611   1.085       .  S
C2600      C2601   1.486       .  S
C2600      H2612   1.084       .  S
C2601      C2602   1.403       .  A
C2601      C2606   1.408       .  A
C2602      C2603   1.397       .  A
C2602      H2613   1.083       .  S
C2603      C2604   1.407       .  A
C2603      H2614   1.083       .  S
C2604      C2605   1.405       .  A
C2605      C2606   1.397       .  A
C2605      H2615   1.083       .  S
C2606      H2616   1.081       .  S
C2617      C2618   1.403       .  A
C2617      C2622   1.404       .  A
C2618      C2619   1.397       .  A
C2618      H2631   1.083       .  S
C2619      C2620   1.406       .  A
C2619      H2632   1.083       .  S
C2620      C2621   1.408       .  A
C2620      C2623   1.487       .  S
C2621      C2622   1.396       .  A
C2621      H2633   1.080       .  S
C2622      H2634   1.083       .  S
C2623      C2624   1.348       .  D
C2623      H2635   1.086       .  S
C2624      C2625   1.483       .  S
C2624      H2636   1.083       .  S
C2625      C2626   1.403       .  A
C2625      C2630   1.406       .  A
C2626      C2627   1.397       .  A
C2626      H2637   1.083       .  S
C2627      C2628   1.405       .  A
C2627      H2638   1.083       .  S
C2628      C2629   1.407       .  A
C2629      C2630   1.395       .  A
C2629      H2639   1.083       .  S
C2630      H2640   1.082       .  S
C2641      C2642   1.399       .  A
C2641      C2646   1.401       .  A
C2642      C2643   1.391       .  A
C2642      H2655   1.083       .  S
C2643      C2644   1.404       .  A
C2643      H2656   1.083       .  S
C2644      C2645   1.411       .  A
C2644      C2647   1.484       .  S
C2645      C2646   1.398       .  A
C2645      H2657   1.079       .  S
C2646      H2658   1.083       .  S
C2647      C2648   1.346       .  D
C2647      H2659   1.084       .  S
C2648      C2649   1.483       .  S
C2648      H2660   1.083       .  S
C2649      C2650   1.402       .  A
C2649      C2654   1.408       .  A
C2650      C2651   1.396       .  A
C2650      H2661   1.083       .  S
C2651      C2652   1.407       .  A
C2651      H2662   1.083       .  S
C2652      C2653   1.403       .  A
C2653      C2654   1.393       .  A
C2653      H2663   1.083       .  S
C2654      H2664   1.081       .  S
C2665      C2666   1.401       .  A
C2665      C2670   1.401       .  A
C2666      C2667   1.394       .  A
C2666      H2679   1.083       .  S
C2667      C2668   1.403       .  A
C2667      H2680   1.083       .  S
C2668      C2669   1.407       .  A
C2668      C2671   1.477       .  S
C2669      C2670   1.395       .  A
C2669      H2681   1.082       .  S
C2670      H2682   1.083       .  S
C2671      C2672   1.345       .  D
C2671      H2683   1.085       .  S
C2672      C2673   1.479       .  S
C2672      H2684   1.086       .  S
C2673      C2674   1.402       .  A
C2673      C2678   1.405       .  A
C2674      C2675   1.397       .  A
C2674      H2685   1.083       .  S
C2675      C2676   1.406       .  A
C2675      H2686   1.083       .  S
C2676      C2677   1.405       .  A
C2677      C2678   1.393       .  A
C2677      H2687   1.083       .  S
C2678      H2688   1.082       .  S
C2689      C2690   1.402       .  A
C2689      C2694   1.401       .  A
C2690      C2691   1.400       .  A
C2690      H2703   1.083       .  S
C2691      C2692   1.405       .  A
C2691      H2704   1.083       .  S
C2692      C2693   1.408       .  A
C2692      C2695   1.486       .  S
C2693      C2694   1.395       .  A
C2693      H2705   1.082       .  S
C2694      H2706   1.083       .  S
C2695      C2696   1.348       .  D
C2695      H2707   1.085       .  S
C2696      C2697   1.487       .  S
C2696      H2708   1.086       .  S
C2697      C2698   1.404       .  A
C2697      C2702   1.407       .  A
C2698      C2699   1.398       .  A
C2698      H2709   1.083       .  S
C2699      C2700   1.405       .  A
C2699      H2710   1.083       .  S
C2700      C2701   1.406       .  A
C2701      C2702   1.397       .  A
C2701      H2711   1.083       .  S
C2702      H2712   1.081       .  S
C2713      C2714   1.408       .  A
C2713      C2718   1.406       .  A
C2714      C2715   1.399       .  A
C2714      H2727   1.083       .  S
C2715      C2716   1.403       .  A
C2715      H2728   1.083       .  S
C2716      C2717   1.408       .  A
C2716      C2719   1.488       .  S
C2717      C2718   1.398       .  A
C2717      H2729   1.082   1_545  S
C2718      H2730   1.083   1_545  S
C2719      C2720   1.349       .  D
C2719      H2731   1.085       .  S
C2720      C2721   1.489       .  S
C2720      H2732   1.086   1_545  S
C2721      C2722   1.404   1_545  A
C2721      C2726   1.409       .  A
C2722      C2723   1.396       .  A
C2722      H2733   1.083       .  S
C2723      C2724   1.403   1_565  A
C2723      H2734   1.083       .  S
C2724      C2725   1.406       .  A
C2725      C2726   1.402       .  A
C2725      H2735   1.083       .  S
C2726      H2736   1.081       .  S
C2737      C2738   1.403       .  A
C2737      C2742   1.403       .  A
C2738      C2739   1.401       .  A
C2738      H2751   1.083   1_545  S
C2739      C2740   1.410       .  A
C2739      H2752   1.081       .  S
C2740      C2741   1.404       .  A
C2740      C2743   1.489       .  S
C2741      C2742   1.397       .  A
C2741      H2753   1.083       .  S
C2742      H2754   1.083       .  S
C2743      C2744   1.347       .  D
C2743      H2755   1.085       .  S
C2744      C2745   1.489       .  S
C2744      H2756   1.085       .  S
C2745      C2746   1.402       .  A
C2745      C2750   1.410       .  A
C2746      C2747   1.395       .  A
C2746      H2757   1.084   1_545  S
C2747      C2748   1.407       .  A
C2747      H2758   1.083   1_545  S
C2748      C2749   1.407       .  A
C2749      C2750   1.403       .  A
C2749      H2759   1.083       .  S
C2750      H2760   1.081       .  S
C2761      C2762   1.401       .  A
C2761      C2766   1.403       .  A
C2762      C2763   1.395       .  A
C2762      H2775   1.083       .  S
C2763      C2764   1.405       .  A
C2763      H2776   1.083       .  S
C2764      C2765   1.411       .  A
C2764      C2767   1.490       .  S
C2765      C2766   1.399       .  A
C2765      H2777   1.079   1_545  S
C2766      H2778   1.083   1_545  S
C2767      C2768   1.349       .  D
C2767      H2779   1.085       .  S
C2768      C2769   1.487       .  S
C2768      H2780   1.083   1_545  S
C2769      C2770   1.403   1_545  A
C2769      C2774   1.408       .  A
C2770      C2771   1.397       .  A
C2770      H2781   1.083       .  S
C2771      C2772   1.406   1_565  A
C2771      H2782   1.083       .  S
C2772      C2773   1.406       .  A
C2773      C2774   1.397       .  A
C2773      H2783   1.083       .  S
C2774      H2784   1.081       .  S
C2785      C2786   1.404   1_545  A
C2785      C2790   1.404       .  A
C2786      C2787   1.398       .  A
C2786      H2799   1.083       .  S
C2787      C2788   1.405   1_565  A
C2787      H2800   1.083       .  S
C2788      C2789   1.409       .  A
C2788      C2791   1.489       .  S
C2789      C2790   1.398       .  A
C2789      H2801   1.081       .  S
C2790      H2802   1.083       .  S
C2791      C2792   1.349       .  D
C2791      H2803   1.085   1_545  S
C2792      C2793   1.486       .  S
C2792      H2804   1.084       .  S
C2793      C2794   1.403       .  A
C2793      C2798   1.407   1_545  A
C2794      C2795   1.398       .  A
C2794      H2805   1.083       .  S
C2795      C2796   1.406       .  A
C2795      H2806   1.083       .  S
C2796      C2797   1.408       .  A
C2797      C2798   1.398   1_545  A
C2797      H2807   1.083   1_545  S
C2798      H2808   1.082       .  S
