geometry optimzed in LAMMPS
_audit_creation_date              2020-11-30 
_audit_creation_method            'lammps2cif' 
_symmetry_space_group_name_H-M    'P1' 
_symmetry_Int_Tables_number       1 
_symmetry_cell_setting            triclinic 
loop_ 
_symmetry_equiv_pos_as_xyz 
  x,y,z 
_cell_length_a                    47.57633449 
_cell_length_b                    25.315400593104997 
_cell_length_c                    49.65786149121145 
_cell_angle_alpha                 89.96660846522005 
_cell_angle_beta                  90.59577447397064 
_cell_angle_gamma                 89.80404596991201 
loop_ 
_atom_site_label 
_atom_site_type_symbol 
_atom_site_fract_x 
_atom_site_fract_y 
_atom_site_fract_z 
_atom_site_charge 
C1          C  0.19844753  0.37697110  0.06350026     0.42700
N2          N  0.19534184  0.44977708  0.04063422     0.01500
C3          C  0.06781477  0.58601380  0.04498476    -0.06300
H4          H  0.05254132  0.40548168  0.03630936     0.07000
C5          C  0.11633556  0.41753314  0.43450215    -0.06700
Co6        Co  0.14290801  0.50824861  0.05434991     0.74200
N7          N  0.09242583  0.44685515  0.03441544    -0.25900
Co8        Co  0.09217426  0.50371061  0.00230849     0.74100
C9          C  0.08659450  0.40704386  0.43195172     0.42800
N10         N  0.17982489  0.44611772  0.46163972     0.01200
N11         N  0.09534825  0.44789107  0.46987327     0.01300
N12         N  0.10454381  0.59142881  0.07334141    -0.46700
H13         H  0.15979371  0.39814010  0.08804124     0.07000
N14         N  0.11340194  0.44885120  0.05209655     0.01600
N15         N  0.09457148  0.56001866  0.47081199     0.01300
C16         C  0.08471470  0.60908845  0.43605987     0.42900
N17         N  0.19825121  0.44628632  0.48157666    -0.25300
C18         C  0.17189415  0.61352983  0.06925259    -0.06200
N19         N  0.20981489  0.40493449  0.04302560    -0.46400
N20         N  0.07376321  0.58650806  0.45859702    -0.46600
C21         C  0.19512393  0.64462054  0.05898005     0.42700
N22         N  0.11088621  0.56334319  0.05190728     0.01500
N23         N  0.19796674  0.56434853  0.47992899    -0.25300
N24         N  0.17434009  0.45174917  0.05753658    -0.25800
N25         N  0.17911731  0.56403341  0.46044261     0.01200
H26         H  0.22813725  0.62139096  0.49199335     0.07100
H27         H  0.12768281  0.59351088  0.41782937     0.07100
N28         N  0.08991089  0.55964673  0.03434090    -0.27700
N29         N  0.11926542  0.44615443  0.45671203    -0.25500
N30         N  0.19394296  0.56858787  0.03897127     0.01500
C31         C  0.08595325  0.39142306  0.07004565     0.42900
C32         C  0.21129314  0.39911952  0.48190285    -0.06700
N33         N  0.11756826  0.56049986  0.45607230    -0.25500
H34         H  0.13145185  0.41759085  0.41836809     0.07100
N35         N  0.11032439  0.41690848  0.07263638    -0.46700
H36         H  0.22629195  0.38609363  0.49692900     0.07100
C37         C  0.20009209  0.63887199  0.45560363     0.42800
C38         C  0.17515325  0.40868151  0.07319510    -0.06200
Co39       Co  0.19749675  0.50695379  0.51032249     0.73800
N40         N  0.17880503  0.40030131  0.44873383    -0.46400
C41         C  0.07787763  0.60793504  0.07104331     0.43000
N42         N  0.20753402  0.61439703  0.03987255    -0.46400
Co43       Co  0.14925059  0.50437802  0.45865800     0.73900
C44         C  0.11369112  0.59178054  0.43484132    -0.06700
C45         C  0.07335159  0.41228777  0.04452586    -0.06300
N46         N  0.17253986  0.56799393  0.05555533    -0.25800
N47         N  0.07469594  0.42744275  0.45470772    -0.46600
H48         H  0.04651939  0.58480031  0.03718604     0.07100
C49         C  0.21258854  0.60947462  0.47823320    -0.06700
Cl50       Cl  0.14535241  0.50617095  0.00635870    -0.49700
C51         C  0.19799245  0.36811137  0.46031516     0.42800
H52         H  0.15566750  0.62560809  0.08303000     0.07000
N53         N  0.17926276  0.60802163  0.44581553    -0.46400
C54         C  0.41563236  0.40649769  0.07137718     0.42700
N55         N  0.40791810  0.45516163  0.03596321     0.01500
C56         C  0.29019648  0.61389911  0.01622798    -0.06300
H57         H  0.27921501  0.38696485  0.00404429     0.07000
C58         C  0.34128413  0.40501602  0.43134518    -0.06700
Co59       Co  0.35230255  0.51155456  0.04395390     0.74200
N60         N  0.30636588  0.44851595  0.01899743    -0.25900
Co61       Co  0.30820988  0.50712045  0.48881290     0.74100
C62         C  0.31810077  0.37167554  0.43980378     0.42800
N63         N  0.39911347  0.45677446  0.45343726     0.01200
N64         N  0.31564464  0.44746298  0.45996509     0.01300
N65         N  0.32079525  0.61629732  0.05079245    -0.46700
H66         H  0.37088362  0.41918099  0.08602446     0.07000
N67         N  0.32317149  0.45087866  0.04015807     0.01600
N68         N  0.31251465  0.56615148  0.45921045     0.01300
C69         C  0.31161241  0.64224155  0.43912361     0.42900
N70         N  0.41794051  0.45654149  0.47318753    -0.25300
C71         C  0.38318690  0.60194957  0.06850816    -0.06200
N72         N  0.42781884  0.42866597  0.04940107    -0.46400
N73         N  0.29798561  0.61084607  0.45678316    -0.46600
C74         C  0.41280325  0.61019377  0.07359640     0.42700
N75         N  0.32143687  0.56971277  0.03847916     0.01500
N76         N  0.41648495  0.56680596  0.47307418    -0.25300
N77         N  0.38394073  0.45492426  0.04915225    -0.25800
N78         N  0.39571631  0.57214804  0.45541914     0.01200
H79         H  0.46090495  0.58155439  0.46884332     0.07100
H80         H  0.35354407  0.62612541  0.41883437     0.07100
N81         N  0.30421719  0.56763056  0.01766322    -0.25900
N82         N  0.33836673  0.45027696  0.44511359    -0.25500
N83         N  0.40705747  0.56707653  0.03615005     0.01500
C84         C  0.30465589  0.37320508  0.04313453     0.42900
C85         C  0.44055773  0.42873614  0.46450683    -0.06700
N86         N  0.33545851  0.56718426  0.44477630    -0.25500
H87         H  0.35875828  0.39485182  0.41863620     0.07100
N88         N  0.32308709  0.40687236  0.05472973    -0.46700
H89         H  0.46079050  0.42691912  0.47459806     0.07100
C90         C  0.43057524  0.60835997  0.43489947     0.42800
C91         C  0.38632963  0.42264678  0.07030133    -0.06200
Co92       Co  0.41324184  0.51126536  0.00487070     0.73800
N93         N  0.40719659  0.42999466  0.43221400    -0.46400
C94         C  0.30169851  0.64732051  0.03793817     0.43000
N95         N  0.42646903  0.58859648  0.05220924    -0.46400
Co96       Co  0.36695338  0.51165805  0.44956408     0.73900
C97         C  0.33626396  0.61259821  0.43092126    -0.06700
C98         C  0.29325009  0.40146240  0.01947848    -0.06300
N99         N  0.38204804  0.57036431  0.04722503    -0.25800
N100        N  0.30314891  0.40077333  0.45765441    -0.46600
H101        H  0.27622850  0.62457551  0.00017604     0.07100
C102        C  0.43963869  0.58764252  0.46156027    -0.06700
Cl103      Cl  0.36046308  0.51011109  0.99684473    -0.49700
C104        C  0.43288076  0.41046346  0.43708703     0.42800
H105        H  0.36619836  0.60702302  0.08245809     0.07000
N106        N  0.40288464  0.59927038  0.43404637    -0.46400
C107        C  0.19291648  0.14816628  0.06611644     0.42700
N108        N  0.21215553  0.07058620  0.06439833     0.01500
C109        C  0.20153561  0.90622028  0.17588780    -0.06300
H110        H  0.20602341  0.06941911  0.20508422     0.07000
C111        C  0.31786236  0.08542737  0.14397940    -0.06700
Co112      Co  0.19445496  0.00444053  0.11013829     0.74200
N113        N  0.21261036  0.04958631  0.16300855    -0.25900
Co114      Co  0.24686126  0.99463260  0.15991192     0.74100
C115        C  0.31609013  0.09613605  0.17240670     0.42800
N116        N  0.29263628  0.06924735  0.07931855     0.01200
N117        N  0.27950816  0.05189435  0.15997860     0.01300
N118        N  0.17265915  0.91493054  0.14027525    -0.46700
H119        H  0.16547246  0.12467044  0.10151619     0.07000
N120        N  0.19562800  0.05526828  0.14194980     0.01600
N121        N  0.28105872  0.93975855  0.15531402     0.01300
C122        C  0.31887422  0.89324810  0.16299534     0.42900
N123        N  0.27317338  0.06960122  0.06035879    -0.25300
C124        C  0.17840781  0.90603009  0.07821001    -0.06200
N125        N  0.21305836  0.11885760  0.05415020    -0.46400
N126        N  0.29444638  0.91110634  0.17418463    -0.46600
C127        C  0.19156940  0.87417736  0.05773460     0.42700
N128        N  0.19552858  0.94282386  0.13711270     0.01500
N129        N  0.27346658  0.95283124  0.05612877    -0.25300
N130        N  0.19375967  0.06747748  0.08386206    -0.25800
N131        N  0.29343155  0.94979383  0.07453304     0.01200
H132        H  0.26072835  0.90135499  0.02383961     0.07100
H133        H  0.33764792  0.91804414  0.12293875     0.07100
N134        N  0.21352863  0.93869600  0.15750172    -0.25900
N135        N  0.29547158  0.05622216  0.13836400    -0.25500
N136        N  0.21193237  0.95065457  0.06000997     0.01500
C137        C  0.17255444  0.09434922  0.17313133     0.42900
C138        C  0.27514503  0.11488146  0.04648204    -0.06700
N139        N  0.29673555  0.94419424  0.13355429    -0.25500
H140        H  0.33581145  0.08958501  0.13096922     0.07100
N141        N  0.17251838  0.08134252  0.14718910    -0.46700
H142        H  0.26099825  0.12713857  0.03052099     0.07100
C143        C  0.29827648  0.87803291  0.05113354     0.42800
C144        C  0.18020537  0.11399168  0.08604243    -0.06200
Co145      Co  0.24249429  0.01081361  0.05926156     0.73800
N146        N  0.30738393  0.11394147  0.08009105    -0.46400
C147        C  0.17421640  0.88974878  0.16378183     0.43000
N148        N  0.21250297  0.90428562  0.04749362    -0.46400
Co149      Co  0.29465930  0.00508764  0.10616049     0.73900
C150        C  0.31980948  0.91513274  0.13618075    -0.06700
C151        C  0.19937170  0.07253645  0.18425346    -0.06300
N152        N  0.19295188  0.95116843  0.07898087    -0.25800
N153        N  0.29183459  0.07417442  0.18133184    -0.46600
H154        H  0.20914066  0.90014590  0.19625492     0.07100
C155        C  0.27534723  0.91054232  0.03991903    -0.06700
Cl156      Cl  0.24473252  0.00345841  0.10937085    -0.49700
C157        C  0.29769789  0.14485319  0.05965979     0.42800
H158        H  0.16313607  0.89372926  0.09269502     0.07000
N159        N  0.30829349  0.90535200  0.07265984    -0.46400
C160        C  0.17329258  0.09648330  0.34210943     0.42700
N161        N  0.21311061  0.05716783  0.34908027     0.01500
C162        C  0.23230729  0.89815117  0.45999862    -0.06300
H163        H  0.24650365  0.12225273  0.47512968     0.07000
C164        C  0.32325473  0.10793176  0.41526426    -0.06700
Co165      Co  0.20510100  0.00427198  0.40200630     0.74200
N166        N  0.23107942  0.06416507  0.44708752    -0.25900
Co167      Co  0.26203659  0.00573592  0.44460179     0.74100
C168        C  0.31315500  0.14162646  0.43676159     0.42800
N169        N  0.29932911  0.05808544  0.35910905     0.01200
N170        N  0.29208500  0.06589996  0.43842890     0.01300
N171        N  0.19717455  0.89914659  0.42925744    -0.46700
H172        H  0.16124193  0.08968769  0.38613359     0.07000
N173        N  0.20959849  0.06403987  0.43027241     0.01600
N174        N  0.29303500  0.94702095  0.44067933     0.01300
C175        C  0.31402812  0.87103860  0.44194579     0.42900
N176        N  0.27874121  0.05780341  0.34096355    -0.25300
C177        C  0.17719493  0.91681706  0.37104371    -0.06200
N178        N  0.19668210  0.07739052  0.32975592    -0.46400
N179        N  0.29517248  0.90232602  0.45456214    -0.46600
C180        C  0.17722998  0.89704182  0.34391900     0.42700
N181        N  0.21027977  0.94524537  0.43039939     0.01500
N182        N  0.27944468  0.94479638  0.34214499    -0.25300
N183        N  0.20049662  0.05997681  0.37261647    -0.25800
N184        N  0.29956495  0.94496476  0.36076892     0.01200
H185        H  0.27757506  0.90702747  0.30294114     0.07100
H186        H  0.33647240  0.88738807  0.40240449     0.07100
N187        N  0.23166050  0.94544497  0.44746568    -0.25900
N188        N  0.30853052  0.06301247  0.41733782    -0.25500
N189        N  0.21394327  0.94524403  0.35009215     0.01500
C190        C  0.20673430  0.13973369  0.44984730     0.42900
C191        C  0.28623569  0.09089714  0.32082929    -0.06700
N192        N  0.30882243  0.94635497  0.41913032    -0.25500
H193        H  0.33697106  0.11829572  0.39892679     0.07100
N194        N  0.19487845  0.10870085  0.43083395    -0.46700
H195        H  0.27505844  0.09612689  0.30193895     0.07100
C196        C  0.31545094  0.89093181  0.33147241     0.42800
C197        C  0.17684147  0.08748372  0.37053019    -0.06200
Co198      Co  0.24625736  0.00122731  0.34465002     0.73800
N199        N  0.32008702  0.08959322  0.35284638    -0.46400
C200        C  0.20978256  0.86721590  0.44731526     0.43000
N201        N  0.20013243  0.91731327  0.33145580    -0.46400
Co202      Co  0.30434078  0.00300251  0.38926193     0.73900
C203        C  0.32332685  0.90085508  0.41862502    -0.06700
C204        C  0.23067580  0.10978358  0.46084646    -0.06300
N205        N  0.19987593  0.94709267  0.37288492    -0.25800
N206        N  0.29357597  0.11307269  0.45009530    -0.46600
H207        H  0.24840073  0.88441439  0.47379174     0.07100
C208        C  0.28798537  0.91202658  0.32222761    -0.06700
Cl209      Cl  0.25447183  0.00349309  0.39475207    -0.49700
C210        C  0.31363416  0.11259634  0.32944511     0.42800
H211        H  0.16031997  0.91592724  0.38547133     0.07000
N212        N  0.32085112  0.91401251  0.35505324    -0.46400
C213        C  0.05489727  0.37515720  0.18117763     0.42700
N214        N  0.03388868  0.38194958  0.21966466     0.01500
C215        C  0.03807351  0.15463067  0.29831120    -0.06300
H216        H  0.02593070  0.10713671  0.21564012     0.07000
C217        C  0.41938207  0.24251853  0.21597628    -0.06700
Co218      Co  0.04847824  0.28771361  0.25345553     0.74200
N219        N  0.02491755  0.18935371  0.22804703    -0.25900
Co220      Co  0.49253179  0.19858705  0.25669495     0.74100
C221        C  0.41818910  0.18637777  0.21096052     0.42800
N222        N  0.45124704  0.36525746  0.22455138     0.01200
N223        N  0.45854797  0.20538374  0.22883706     0.01300
N224        N  0.06843637  0.22224794  0.29782321    -0.46700
H225        H  0.07990536  0.30313789  0.19541528     0.07000
N226        N  0.04412550  0.22676140  0.22612437     0.01600
N227        N  0.46043881  0.20919844  0.28551435     0.01300
C228        C  0.42156596  0.19461045  0.30673863     0.42900
N229        N  0.47224566  0.39858969  0.22273442    -0.25300
C230        C  0.06954700  0.34707484  0.30360993    -0.06200
N231        N  0.03505072  0.40293045  0.19498811    -0.46400
N232        N  0.44541739  0.17142305  0.29730404    -0.46600
C233        C  0.06173864  0.39455451  0.31799581     0.42700
N234        N  0.04543709  0.23385563  0.28427961     0.01500
N235        N  0.47658359  0.40076024  0.28425502    -0.25300
N236        N  0.05089296  0.34103975  0.22207668    -0.25800
N237        N  0.45539909  0.36748303  0.28502027     0.01200
H238        H  0.49565213  0.44866611  0.31575873     0.07100
H239        H  0.40559869  0.27737106  0.29756986     0.07100
N240        N  0.02657440  0.19557839  0.28446737    -0.25900
N241        N  0.44402284  0.25015099  0.22816977    -0.25500
N242        N  0.03785763  0.38983921  0.28071388     0.01500
C243        C  0.06227222  0.16276118  0.20377796     0.42900
C244        C  0.46972606  0.42393871  0.19885530    -0.06700
N245        N  0.44640395  0.25428873  0.28517217    -0.25500
H246        H  0.40238823  0.27091178  0.21592316     0.07100
N247        N  0.06594037  0.21255253  0.21180776    -0.46700
H248        H  0.48482859  0.45143761  0.19089368     0.07100
C249        C  0.45833774  0.39575518  0.32616602     0.42800
C250        C  0.06557230  0.33515869  0.19951459    -0.06200
Co251      Co  0.50511240  0.39553618  0.25162995     0.73800
N252        N  0.43488248  0.36487400  0.20277617    -0.46400
C253        C  0.06631584  0.17283046  0.30672913     0.43000
N254        N  0.04182413  0.41903076  0.30269542    -0.46400
Co255      Co  0.44937560  0.31043750  0.25557750     0.73900
C256        C  0.42279144  0.24938839  0.29884477    -0.06700
C257        C  0.03497088  0.14624047  0.21496484    -0.06300
N258        N  0.05355304  0.34711392  0.28123325    -0.25800
N259        N  0.44324161  0.16558123  0.21919895    -0.46600
H260        H  0.02970981  0.11497693  0.29878437     0.07100
C261        C  0.47921349  0.42240805  0.30916968    -0.06700
Cl262      Cl  0.49880718  0.29736775  0.25410007    -0.49700
C263        C  0.44492622  0.40071769  0.18523122     0.42800
H264        H  0.08352113  0.31579247  0.31012732     0.07000
N265        N  0.44439037  0.36329207  0.30930305    -0.46400
C266        C  0.06783768  0.82760991  0.20528722     0.42700
N267        N  0.03235408  0.80469136  0.22910328     0.01500
C268        C  0.03109417  0.58077693  0.30798641    -0.06300
H269        H  0.01631069  0.55623565  0.19177938     0.07000
C270        C  0.43483946  0.65404846  0.20183176    -0.06700
Co271      Co  0.04915144  0.70236958  0.25537508     0.74200
N272        N  0.02924679  0.61028890  0.22330299    -0.25900
Co273      Co  0.49887562  0.60644115  0.25370876     0.74100
C274        C  0.44761608  0.61440225  0.18502581     0.42800
N275        N  0.44801059  0.76671109  0.22885307     0.01200
N276        N  0.46790230  0.61283560  0.22364873     0.01300
N277        N  0.06295433  0.64572329  0.30736814    -0.46700
H278        H  0.09038427  0.74966070  0.21260325     0.07000
N279        N  0.04789614  0.64850702  0.22376830     0.01600
N280        N  0.46819711  0.60691726  0.28382658     0.01300
C281        C  0.44769480  0.59997407  0.32217937     0.42900
N282        N  0.46586589  0.80672939  0.22960157    -0.25300
C283        C  0.07202063  0.76472997  0.30124944    -0.06200
N284        N  0.04344783  0.84567309  0.21610503    -0.46400
N285        N  0.46809769  0.57930853  0.30656934    -0.46600
C286        C  0.06905218  0.81724035  0.31221044     0.42700
N287        N  0.04911320  0.64293470  0.28417537     0.01500
N288        N  0.46626445  0.80181665  0.28612056    -0.25300
N289        N  0.04937648  0.76329210  0.22843134    -0.25800
N290        N  0.44958963  0.76018145  0.28633248     0.01200
H291        H  0.45934272  0.88160569  0.29964321     0.07100
H292        H  0.42011329  0.67203747  0.31401428     0.07100
N293        N  0.02983787  0.60595670  0.28406118    -0.25900
N294        N  0.44921326  0.65124766  0.22504370    -0.25500
N295        N  0.03304714  0.79941408  0.28668526     0.01500
C296        C  0.05063078  0.61736984  0.18341255     0.42900
C297        C  0.45376533  0.84741673  0.21599934    -0.06700
N298        N  0.44961575  0.64544459  0.28419650    -0.25500
H299        H  0.41939312  0.68361374  0.19636997     0.07100
N300        N  0.06072485  0.65451756  0.20038106    -0.46700
H301        H  0.46143990  0.88756299  0.21565543     0.07100
C302        C  0.42575050  0.81768259  0.30854068     0.42800
C303        C  0.07163885  0.77385557  0.21360715    -0.06200
Co304      Co  0.99956078  0.80469780  0.25791056     0.73800
N305        N  0.42459703  0.77748222  0.21556593    -0.46400
C306        C  0.05275388  0.60844140  0.32399779     0.43000
N307        N  0.04461785  0.83743680  0.30174899    -0.46400
Co308      Co  0.44906940  0.70521373  0.25607541     0.73900
C309        C  0.43537254  0.64345569  0.30724574    -0.06700
C310        C  0.03029720  0.58676829  0.19895609    -0.06300
N311        N  0.04981398  0.75778947  0.28543824    -0.25800
N312        N  0.46785722  0.58991178  0.19961514    -0.46600
H313        H  0.01660182  0.55078129  0.31414485     0.07100
C314        C  0.45274934  0.84086988  0.29950774    -0.06700
Cl315      Cl  0.49914346  0.70509121  0.25573837    -0.49700
C316        C  0.42639273  0.82699047  0.20654680     0.42800
H317        H  0.09051089  0.73974931  0.30098683     0.07000
N318        N  0.42623703  0.76802333  0.29954610    -0.46400
C319        C  0.37712331  0.80484206  0.32369790    -0.12100
C320        C  0.39744901  0.84052120  0.31415170     0.04900
C321        C  0.38832376  0.89096660  0.30554848    -0.07400
C322        C  0.35955111  0.90440776  0.30693621    -0.08100
C323        C  0.33955885  0.86866292  0.31699034    -0.02700
C324        C  0.34857597  0.81795192  0.32471086     0.04200
N325        N  0.32899483  0.78021412  0.33500418     0.66700
H326        H  0.38340861  0.76545278  0.32994804     0.15600
H327        H  0.35318700  0.94468007  0.30250805     0.15300
N328        N  0.40790188  0.92991113  0.29682865     0.74400
O329        O  0.33483008  0.75414342  0.35602300    -0.39100
O330        O  0.30682167  0.76987260  0.32188757    -0.39000
O331        O  0.40456553  0.95165113  0.27414196    -0.39700
O332        O  0.42449098  0.95037809  0.31382050    -0.39800
C333        C  0.11418557  0.81161173  0.33619727    -0.12100
C334        C  0.09442669  0.84476793  0.32322576     0.04900
C335        C  0.10269929  0.89700647  0.31655739    -0.07400
C336        C  0.13132352  0.91145402  0.32010535    -0.08100
C337        C  0.15111846  0.87638861  0.33166284    -0.02700
C338        C  0.14202451  0.82660486  0.34013079     0.04200
N339        N  0.16084212  0.79125193  0.35376422     0.66700
H340        H  0.10817266  0.77238940  0.34269972     0.15600
H341        H  0.13783049  0.95145024  0.31566539     0.15300
N342        N  0.08252370  0.93648685  0.30820447     0.74400
O343        O  0.16068146  0.78857493  0.37912372    -0.39100
O344        O  0.17485938  0.75809210  0.34046173    -0.39000
O345        O  0.05796854  0.93573288  0.31755578    -0.39700
O346        O  0.09066985  0.97797384  0.29654756    -0.39800
C347        C  0.37391074  0.20101332  0.32546707    -0.12100
C348        C  0.39364773  0.16988834  0.31164196     0.04900
C349        C  0.38403687  0.12345147  0.29864042    -0.07400
C350        C  0.35550293  0.10880572  0.30068573    -0.08100
C351        C  0.33628266  0.13974770  0.31522680    -0.02700
C352        C  0.34560850  0.18722414  0.32671906     0.04200
N353        N  0.32665813  0.22023484  0.34136220     0.66700
H354        H  0.38031104  0.23742619  0.33501141     0.15600
H355        H  0.34887782  0.07084243  0.29282991     0.15300
N356        N  0.40270988  0.09054834  0.28361001     0.74400
O357        O  0.30821140  0.24679636  0.32885503    -0.39100
O358        O  0.32994813  0.22661721  0.36639320    -0.39000
O359        O  0.42379026  0.06987590  0.29515159    -0.39700
O360        O  0.39551541  0.07465361  0.26046596    -0.39800
C361        C  0.09387179  0.10559744  0.33198578    -0.12100
C362        C  0.09248316  0.14201526  0.31102015     0.04900
C363        C  0.11767530  0.15588354  0.29742368    -0.07400
C364        C  0.14362628  0.13684664  0.30674177    -0.08100
C365        C  0.14530189  0.10433924  0.32926619    -0.02700
C366        C  0.11989353  0.08620275  0.34120704     0.04200
N367        N  0.11991676  0.04903048  0.36299601     0.66700
H368        H  0.07477538  0.09419489  0.34215640     0.15600
H369        H  0.16276757  0.14984528  0.29714883     0.15300
N370        N  0.11746012  0.19075971  0.27465437     0.74400
O371        O  0.10485491  0.05719410  0.38337550    -0.39100
O372        O  0.13294459  0.00580041  0.36090591    -0.39000
O373        O  0.13594094  0.22613300  0.27245730    -0.39700
O374        O  0.10036553  0.18322884  0.25551871    -0.39800
C375        C  0.36587785  0.85127848  0.15973273    -0.12100
C376        C  0.34543467  0.87437544  0.17644240     0.04900
C377        C  0.35308840  0.88552272  0.20340496    -0.07400
C378        C  0.38075056  0.87456734  0.21262440    -0.08100
C379        C  0.40116173  0.85329730  0.19525325    -0.02700
C380        C  0.39329404  0.84110778  0.16869534     0.04200
N381        N  0.41278574  0.81624522  0.15083112     0.66700
H382        H  0.36090273  0.84211571  0.13902583     0.15600
H383        H  0.38599741  0.88074777  0.23366879     0.15300
N384        N  0.33322085  0.90767805  0.22160228     0.74400
O385        O  0.40637521  0.77355178  0.13921174    -0.39100
O386        O  0.43655120  0.83664938  0.14681956    -0.39000
O387        O  0.31928151  0.87759021  0.23665885    -0.39700
O388        O  0.33305005  0.95680872  0.22585177    -0.39800
C389        C  0.14148627  0.87965826  0.20294413    -0.12100
C390        C  0.14733148  0.87159752  0.17563989     0.04900
C391        C  0.12495128  0.85615773  0.15812007    -0.07400
C392        C  0.09764690  0.85113980  0.16791735    -0.08100
C393        C  0.09193464  0.85762880  0.19514734    -0.02700
C394        C  0.11412819  0.87199171  0.21276900     0.04200
N395        N  0.10913233  0.87805405  0.24084363     0.66700
H396        H  0.15797498  0.89259655  0.21659538     0.15600
H397        H  0.08118734  0.83706423  0.15450288     0.15300
N398        N  0.12967039  0.84357778  0.13035507     0.74400
O399        O  0.11596100  0.84168867  0.25704362    -0.39100
O400        O  0.10180091  0.92256931  0.24973996    -0.39000
O401        O  0.14909133  0.81195180  0.12404806    -0.39700
O402        O  0.11216066  0.85824598  0.11256803    -0.39800
C403        C  0.39263306  0.11041507  0.19133018    -0.12100
C404        C  0.39172525  0.15622444  0.20690636     0.04900
C405        C  0.36513097  0.17478834  0.21611279    -0.07400
C406        C  0.34031137  0.15120280  0.20649905    -0.08100
C407        C  0.34133925  0.10861451  0.18880544    -0.02700
C408        C  0.36782396  0.08600569  0.18252865     0.04200
N409        N  0.36986032  0.03900739  0.16660380     0.66700
H410        H  0.41273318  0.09463441  0.18505405     0.15600
H411        H  0.32009199  0.16769241  0.21191281     0.15300
N412        N  0.36274009  0.21699420  0.23524985     0.74400
O413        O  0.38661166  0.03688427  0.14708034    -0.39100
O414        O  0.35705175  0.99785711  0.17371010    -0.39000
O415        O  0.34288797  0.25004736  0.23325519    -0.39700
O416        O  0.37793711  0.21698292  0.25619702    -0.39800
C417        C  0.12927013  0.14534726  0.16737514    -0.12100
C418        C  0.14517423  0.11200176  0.18432364     0.04900
C419        C  0.13167027  0.08852333  0.20652048    -0.07400
C420        C  0.10303730  0.10042953  0.21166780    -0.08100
C421        C  0.08737191  0.13374771  0.19424106    -0.02700
C422        C  0.10082082  0.15489172  0.17164068     0.04200
N423        N  0.08580772  0.18805827  0.15312304     0.66700
H424        H  0.13883207  0.16278029  0.14974711     0.15600
H425        H  0.09335909  0.08516079  0.22971390     0.15300
N426        N  0.14637943  0.05191169  0.22346882     0.74400
O427        O  0.09055113  0.23699709  0.15279395    -0.39100
O428        O  0.07148527  0.16752124  0.13437147    -0.39000
O429        O  0.15347497  0.06501330  0.24708107    -0.39700
O430        O  0.15133692  0.00570291  0.21523106    -0.39800
C431        C  0.31790800  0.73132714  0.06044791    -0.12100
C432        C  0.30135771  0.70692781  0.04036926     0.04900
C433        C  0.28603835  0.74046984  0.02263534    -0.07400
C434        C  0.28795698  0.79569386  0.02491717    -0.08100
C435        C  0.30264955  0.81985879  0.04617558    -0.02700
C436        C  0.31832384  0.78670974  0.06374032     0.04200
N437        N  0.33372574  0.80808561  0.08592936     0.66700
H438        H  0.33012176  0.70722054  0.07431982     0.15600
H439        H  0.27619067  0.81972030  0.01076808     0.15300
N440        N  0.26532794  0.71987474  0.00470227     0.74400
O441        O  0.32569845  0.79853950  0.10955734    -0.39100
O442        O  0.35772165  0.82770436  0.08218527    -0.39000
O443        O  0.24370895  0.69965354  0.01477568    -0.39700
O444        O  0.26421909  0.73489257  0.48044602    -0.39800
C445        C  0.29807741  0.28055508  0.02677370    -0.12100
C446        C  0.30440343  0.31465811  0.04823874     0.04900
C447        C  0.31281896  0.29154899  0.07315259    -0.07400
C448        C  0.31177473  0.23599655  0.07666198    -0.08100
C449        C  0.30376262  0.20248146  0.05535489    -0.02700
C450        C  0.29900240  0.22545974  0.02988171     0.04200
N451        N  0.29667874  0.19301258  0.00653215     0.66700
H452        H  0.29396264  0.29650437  0.00691077     0.15600
H453        H  0.31651208  0.21928450  0.09628406     0.15300
N454        N  0.32257646  0.32359086  0.09504292     0.74400
O455        O  0.27616300  0.19893513  0.99062886    -0.39100
O456        O  0.31564308  0.15969601  0.00127264    -0.39000
O457        O  0.30628018  0.35626187  0.10610711    -0.39700
O458        O  0.34709482  0.31696925  0.10441089    -0.39800
C459        C  0.29405925  0.72984052  0.42348713    -0.12100
C460        C  0.31135771  0.70069134  0.44101857     0.04900
C461        C  0.33016583  0.72793751  0.45837072    -0.07400
C462        C  0.32987106  0.78347322  0.45904061    -0.08100
C463        C  0.31197991  0.81264064  0.44205382    -0.02700
C464        C  0.29439976  0.78544664  0.42347275     0.04200
N465        N  0.27783275  0.81332917  0.40365269     0.66700
H466        H  0.28059919  0.70914964  0.40933415     0.15600
H467        H  0.34422574  0.80401444  0.47246769     0.15300
N468        N  0.35078982  0.70008810  0.47423117     0.74400
O469        O  0.27653017  0.79658248  0.37973773    -0.39100
O470        O  0.26339660  0.85314655  0.41009502    -0.39000
O471        O  0.37659667  0.71310698  0.97284521    -0.39700
O472        O  0.34383878  0.66388888  0.98997644    -0.39800
C473        C  0.29013845  0.23038261  0.43868318    -0.12100
C474        C  0.31486034  0.20042359  0.43665451     0.04900
C475        C  0.34044790  0.22731823  0.43254685    -0.07400
C476        C  0.34104590  0.28295273  0.43259323    -0.08100
C477        C  0.31651270  0.31287114  0.43702054    -0.02700
C478        C  0.29092333  0.28571274  0.43955247     0.04200
N479        N  0.26547913  0.31388450  0.44364257     0.66700
H480        H  0.27000035  0.21069590  0.44001436     0.15600
H481        H  0.36106692  0.30253619  0.43023473     0.15300
N482        N  0.36610005  0.19881673  0.42876545     0.74400
O483        O  0.25256571  0.33373702  0.92419022    -0.39100
O484        O  0.25901031  0.32727415  0.46718942    -0.39000
O485        O  0.37918186  0.20315427  0.40689581    -0.39700
O486        O  0.37754780  0.17517612  0.44840409    -0.39800
C487        C  0.43403124  0.55556103  0.39351925    -0.12100
C488        C  0.44454940  0.59853493  0.40871198     0.04900
C489        C  0.45892517  0.63883908  0.39516950    -0.07400
C490        C  0.46070651  0.63756329  0.36689034    -0.08100
C491        C  0.44776189  0.59704256  0.35182252    -0.02700
C492        C  0.43378191  0.55611044  0.36528877     0.04200
N493        N  0.41643474  0.51891328  0.35087601     0.66700
H494        H  0.42225478  0.52500795  0.40366906     0.15600
H495        H  0.47148554  0.66918565  0.35655821     0.15300
N496        N  0.47077279  0.68214343  0.40975710     0.74400
O497        O  0.41197068  0.47377725  0.36069985    -0.39100
O498        O  0.40114602  0.53448357  0.33148278    -0.39000
O499        O  0.49228898  0.67480346  0.42437690    -0.39700
O500        O  0.46214819  0.72856618  0.40533185    -0.39800
C501        C  0.42029090  0.57736322  0.14842315    -0.12100
C502        C  0.44262815  0.60907776  0.15602044     0.04900
C503        C  0.45644205  0.64005966  0.13644270    -0.07400
C504        C  0.44735256  0.63767281  0.10930627    -0.08100
C505        C  0.42386893  0.60748922  0.10179545    -0.02700
C506        C  0.41037872  0.57680576  0.12203479     0.04200
N507        N  0.38635727  0.54464613  0.11677665     0.66700
H508        H  0.40947674  0.55420846  0.16349710     0.15600
H509        H  0.45762543  0.66174107  0.09430752     0.15300
N510        N  0.47875119  0.67549527  0.14376365     0.74400
O511        O  0.39018097  0.49597039  0.11328727    -0.39100
O512        O  0.36277722  0.55990259  0.12530784    -0.39000
O513        O  0.49898776  0.68234789  0.12792830    -0.39700
O514        O  0.47621369  0.70589159  0.16373850    -0.39800
C515        C  0.47420048  0.42256817  0.37330170    -0.12100
C516        C  0.45720978  0.39082626  0.35649672     0.04900
C517        C  0.43912926  0.35438031  0.36933351    -0.07400
C518        C  0.43579286  0.35542838  0.39729612    -0.08100
C519        C  0.44928137  0.39301553  0.41343500    -0.02700
C520        C  0.47022550  0.42458242  0.40155422     0.04200
N521        N  0.48699263  0.45974773  0.41753449     0.66700
H522        H  0.48948663  0.44773758  0.36430997     0.15600
H523        H  0.41981856  0.33046405  0.40607630     0.15300
N524        N  0.42247309  0.31760856  0.35449558     0.74400
O525        O  0.51342226  0.45583440  0.41729348    -0.39100
O526        O  0.47572818  0.49688922  0.43049034    -0.39000
O527        O  0.42584329  0.26893009  0.35904709    -0.39700
O528        O  0.39980910  0.33336277  0.34372090    -0.39800
C529        C  0.44811896  0.44136404  0.13885185    -0.12100
C530        C  0.43771481  0.40113218  0.15555617     0.04900
C531        C  0.42291563  0.35910389  0.14299044    -0.07400
C532        C  0.41811997  0.35928478  0.11501870    -0.08100
C533        C  0.42923437  0.39859428  0.09836293    -0.02700
C534        C  0.44613090  0.43811514  0.11041791     0.04200
N535        N  0.46204772  0.47380560  0.09413432     0.66700
H536        H  0.45909338  0.47424944  0.14796509     0.15600
H537        H  0.40499862  0.32878397  0.10622987     0.15300
N538        N  0.41268418  0.31537559  0.15811842     0.74400
O539        O  0.46676875  0.52018164  0.10219633    -0.39100
O540        O  0.47653086  0.45562999  0.07507997    -0.39000
O541        O  0.38806898  0.31690816  0.16731170    -0.39700
O542        O  0.42549302  0.27171928  0.15694915    -0.39800
C543        C  0.19821459  0.72952478  0.47503306    -0.12100
C544        C  0.20079164  0.69737765  0.45216703     0.04900
C545        C  0.20496656  0.72185985  0.42690133    -0.07400
C546        C  0.20745531  0.77740948  0.42530286    -0.08100
C547        C  0.20573276  0.80898829  0.44850519    -0.02700
C548        C  0.20095413  0.78451316  0.47326652     0.04200
N549        N  0.20074574  0.81583068  0.99685802     0.66700
H550        H  0.19427410  0.71178955  0.49448922     0.15600
H551        H  0.21129582  0.79581604  0.40599066     0.15300
N552        N  0.20772058  0.69091996  0.40295391     0.74400
O553        O  0.18251687  0.85190421  0.99899456    -0.39100
O554        O  0.22308830  0.81856073  0.01059244    -0.39000
O555        O  0.18742141  0.66314947  0.39469634    -0.39700
O556        O  0.22900182  0.69638304  0.38827064    -0.39800
C557        C  0.20563227  0.27816875  0.47974605    -0.12100
C558        C  0.19771662  0.30934160  0.45756681     0.04900
C559        C  0.18919497  0.28354218  0.43358479    -0.07400
C560        C  0.19126025  0.22813280  0.43152198    -0.08100
C561        C  0.20101401  0.19741894  0.45330913    -0.02700
C562        C  0.20687602  0.22292031  0.47795271     0.04200
N563        N  0.21236533  0.19304960  0.00138332     0.66700
H564        H  0.21040532  0.29677206  0.49886878     0.15600
H565        H  0.18594577  0.20929434  0.41256400     0.15300
N566        N  0.17890269  0.31298157  0.41098163     0.74400
O567        O  0.22830423  0.21089900  0.01966433    -0.39100
O568        O  0.19827946  0.15178986  0.00559647    -0.39000
O569        O  0.19585120  0.32998797  0.39366644    -0.39700
O570        O  0.15282322  0.31473803  0.40615506    -0.39800
C571        C  0.17097135  0.72967688  0.05054392    -0.12100
C572        C  0.19556144  0.70337440  0.05910057     0.04900
C573        C  0.21869911  0.73369523  0.06862339    -0.07400
C574        C  0.21671820  0.78945610  0.06785912    -0.08100
C575        C  0.19217111  0.81542846  0.05889331    -0.02700
C576        C  0.16878785  0.78492832  0.05090754     0.04200
N577        N  0.14300602  0.80929165  0.04217244     0.66700
H578        H  0.15301514  0.70685416  0.04373982     0.15600
H579        H  0.23447737  0.81310900  0.07434838     0.15300
N580        N  0.24375059  0.70950758  0.07989199     0.74400
O581        O  0.12989983  0.83966404  0.05781073    -0.39100
O582        O  0.13114056  0.79414636  0.02068748    -0.39000
O583        O  0.24886744  0.66095492  0.07684437    -0.39700
O584        O  0.26090513  0.73684847  0.09350122    -0.39800
C585        C  0.17622054  0.29208419  0.05119341    -0.12100
C586        C  0.19827832  0.31833166  0.06463915     0.04900
C587        C  0.21776399  0.28831793  0.08024883    -0.07400
C588        C  0.21540821  0.23261424  0.08032882    -0.08100
C589        C  0.19326842  0.20676710  0.06692152    -0.02700
C590        C  0.17306529  0.23705371  0.05286926     0.04200
N591        N  0.14927218  0.21248799  0.04023319     0.66700
H592        H  0.16074016  0.31489249  0.03994996     0.15600
H593        H  0.23069475  0.20888994  0.09128114     0.15300
N594        N  0.23933134  0.31290109  0.09662644     0.74400
O595        O  0.14312431  0.22236346  0.51586006    -0.39100
O596        O  0.13273024  0.18495221  0.05409450    -0.39000
O597        O  0.23847711  0.36159004  0.10202567    -0.39700
O598        O  0.25774455  0.28479292  0.10829098    -0.39800
C599        C  0.04972626  0.58311667  0.40070859    -0.12100
C600        C  0.06960376  0.61949122  0.41023482     0.04900
C601        C  0.08144622  0.65508527  0.39169995    -0.07400
C602        C  0.07564052  0.65022636  0.36408788    -0.08100
C603        C  0.05726875  0.61132043  0.35401289    -0.02700
C604        C  0.04336182  0.57901193  0.37298346     0.04200
N605        N  0.02340400  0.54053616  0.36466596     0.66700
H606        H  0.04071839  0.55485121  0.41452313     0.15600
H607        H  0.08596546  0.67714091  0.35044394     0.15300
N608        N  0.10066622  0.69489800  0.40060534     0.74400
O609        O  0.03167814  0.49913279  0.35313301    -0.39100
O610        O  0.99884643  0.54254851  0.37381557    -0.39000
O611        O  0.12557801  0.69490934  0.39214576    -0.39700
O612        O  0.09163366  0.73421698  0.41354889    -0.39800
C613        C  0.06737716  0.66174340  0.11132683    -0.12100
C614        C  0.06240251  0.61540678  0.09662333     0.04900
C615        C  0.05189628  0.57110384  0.11050291    -0.07400
C616        C  0.04738660  0.57315303  0.13840861    -0.08100
C617        C  0.05365682  0.61857592  0.15340024    -0.02700
C618        C  0.06312287  0.66376801  0.13931912     0.04200
N619        N  0.06898522  0.71197577  0.15307275     0.66700
H620        H  0.07643282  0.69564552  0.10132753     0.15600
H621        H  0.04083934  0.53764240  0.14868967     0.15300
N622        N  0.05117953  0.52091254  0.09771203     0.74400
O623        O  0.09418180  0.72505160  0.15749317    -0.39100
O624        O  0.04967004  0.74581088  0.15565559    -0.39000
O625        O  0.07245046  0.49133305  0.09957439    -0.39700
O626        O  0.03137631  0.50936699  0.08172273    -0.39800
C627        C  0.05191821  0.36709309  0.36544415    -0.12100
C628        C  0.06538390  0.40172452  0.34750465     0.04900
C629        C  0.08296011  0.44143832  0.35802785    -0.07400
C630        C  0.08571856  0.44709788  0.38607073    -0.08100
C631        C  0.07418410  0.40997058  0.40413379    -0.02700
C632        C  0.05676860  0.37008884  0.39348996     0.04200
N633        N  0.04545791  0.33034187  0.41062453     0.66700
H634        H  0.03861150  0.33598319  0.35751782     0.15600
H635        H  0.09930616  0.47802396  0.39374279     0.15300
N636        N  0.09927645  0.47437455  0.34059791     0.74400
O637        O  0.51954920  0.33079768  0.41590422    -0.39100
O638        O  0.06016216  0.29040776  0.41667858    -0.39000
O639        O  0.10308306  0.52239252  0.34633777    -0.39700
O640        O  0.11347591  0.45381046  0.32196618    -0.39800
C641        C  0.04713769  0.38738244  0.10393982    -0.12100
C642        C  0.07374634  0.37062975  0.09549956     0.04900
C643        C  0.09265480  0.34992443  0.11521260    -0.07400
C644        C  0.08633956  0.35441194  0.14269442    -0.08100
C645        C  0.06059381  0.37484917  0.15143776    -0.02700
C646        C  0.04057723  0.38914512  0.13158160     0.04200
N647        N  0.01341471  0.40567836  0.13923130     0.66700
H648        H  0.03217104  0.40277766  0.08932543     0.15600
H649        H  0.10181716  0.34149673  0.15742874     0.15300
N650        N  0.11891941  0.32615387  0.10753773     0.74400
O651        O  0.00891268  0.45421060  0.14289244    -0.39100
O652        O  0.49654756  0.37177654  0.14815256    -0.39000
O653        O  0.13980251  0.32659450  0.12345083    -0.39700
O654        O  0.12049311  0.30013428  0.08592892    -0.39800
C655        C  0.19820116  0.37637137  0.56363310     0.42700
N656        N  0.19516925  0.44920417  0.54075793     0.01500
C657        C  0.06764171  0.58540652  0.54494237    -0.06300
H658        H  0.05247469  0.40473495  0.53617611     0.07000
C659        C  0.11637139  0.41800297  0.93444696    -0.06700
Co660      Co  0.14274280  0.50773464  0.55442835     0.74200
N661        N  0.09230825  0.44630090  0.53440191    -0.25900
Co662      Co  0.09207332  0.50318849  0.50232551     0.74100
C663        C  0.08662581  0.40756146  0.93189831     0.42800
N664        N  0.17990702  0.44650952  0.96153596     0.01200
N665        N  0.09540705  0.44839063  0.96983173     0.01300
N666        N  0.10432356  0.59087969  0.57335824    -0.46700
H667        H  0.15957321  0.39768295  0.58816905     0.07000
N668        N  0.11325244  0.44831457  0.55211505     0.01600
N669        N  0.09466190  0.56050908  0.97077523     0.01300
C670        C  0.08477880  0.60951541  0.93600144     0.42900
N671        N  0.19835749  0.44667958  0.98145456    -0.25300
C672        C  0.17173872  0.61299286  0.56940248    -0.06200
N673        N  0.20959370  0.40429687  0.54315138    -0.46400
N674        N  0.07384569  0.58697491  0.95855848    -0.46600
C675        C  0.19500050  0.64406678  0.55917033     0.42700
N676        N  0.11071816  0.56281627  0.55193349     0.01500
N677        N  0.19809124  0.56474344  0.97977274    -0.25300
N678        N  0.17416627  0.45123107  0.55765698    -0.25800
N679        N  0.17920394  0.56443962  0.96030845     0.01200
H680        H  0.22848396  0.62177708  0.99185565     0.07100
H681        H  0.12774082  0.59392991  0.91776142     0.07100
N682        N  0.08976991  0.55909145  0.53433915    -0.27700
N683        N  0.11932103  0.44660892  0.95666292    -0.25500
N684        N  0.19380650  0.56806135  0.53913369     0.01500
C685        C  0.08583897  0.39070033  0.56995694     0.42900
C686        C  0.21143445  0.39953034  0.98173792    -0.06700
N687        N  0.11764878  0.56096242  0.95601927    -0.25500
H688        H  0.13148461  0.41803085  0.91830962     0.07100
N689        N  0.11017770  0.41627135  0.57261374    -0.46700
H690        H  0.22646779  0.38650513  0.99673624     0.07100
C691        C  0.20025128  0.63919340  0.95541016     0.42800
C692        C  0.17494332  0.40817070  0.57332362    -0.06200
Co693      Co  0.19762420  0.50742462  0.01018206     0.73800
N694        N  0.17891440  0.40072552  0.94859442    -0.46400
C695        C  0.07764753  0.60731190  0.57101412     0.43000
N696        N  0.20741970  0.61384444  0.54006931    -0.46400
Co697      Co  0.14932423  0.50480526  0.95857733     0.73900
C698        C  0.11375948  0.59222346  0.93478239    -0.06700
C699        C  0.07325647  0.41161696  0.54444273    -0.06300
N700        N  0.17237998  0.56747557  0.55568896    -0.25800
N701        N  0.07474163  0.42799182  0.95465893    -0.46600
H702        H  0.04636015  0.58414386  0.53711064     0.07100
C703        C  0.21273377  0.60977241  0.97800793    -0.06700
Cl704      Cl  0.14523824  0.50569373  0.50643803    -0.49700
C705        C  0.19814587  0.36854878  0.96012596     0.42800
H706        H  0.15549585  0.62507416  0.58316265     0.07000
N707        N  0.17937032  0.60839311  0.94566177    -0.46400
C708        C  0.41522399  0.40662200  0.57139094     0.42700
N709        N  0.40747441  0.45511742  0.53593040     0.01500
C710        C  0.28987978  0.61400291  0.51609246    -0.06300
H711        H  0.27873567  0.38698143  0.50395985     0.07000
C712        C  0.34161294  0.40509079  0.93137984    -0.06700
Co713      Co  0.35185895  0.51147589  0.54390078     0.74200
N714        N  0.30592248  0.44848387  0.51890800    -0.25900
Co715      Co  0.30859862  0.50714582  0.98890640     0.74100
C716        C  0.31842889  0.37175071  0.93983998     0.42800
N717        N  0.39946185  0.45682985  0.95346753     0.01200
N718        N  0.31600950  0.44749818  0.96004459     0.01300
N719        N  0.32044877  0.61628667  0.55069317    -0.46700
H720        H  0.37045708  0.41922891  0.58602072     0.07000
N721        N  0.32270671  0.45083077  0.54008408     0.01600
N722        N  0.31286630  0.56621063  0.95931313     0.01300
C723        C  0.31191548  0.64227230  0.93919550     0.42900
N724        N  0.41831242  0.45656613  0.97319764    -0.25300
C725        C  0.38276608  0.60161076  0.56859513    -0.06200
N726        N  0.42739103  0.42872216  0.54939244    -0.46400
N727        N  0.29832367  0.61089553  0.95689191    -0.46600
C728        C  0.41238392  0.60976053  0.57370367     0.42700
N729        N  0.32102702  0.56967291  0.53840268     0.01500
N730        N  0.41685147  0.56684814  0.97309019    -0.25300
N731        N  0.38349238  0.45485667  0.54911405    -0.25800
N732        N  0.39604565  0.57223334  0.95548133     0.01200
H733        H  0.46125496  0.58166793  0.96879116     0.07100
H734        H  0.35382791  0.62616940  0.91886633     0.07100
N735        N  0.30383418  0.56764189  0.51756892    -0.25900
N736        N  0.33871754  0.45032682  0.94517508    -0.25500
N737        N  0.40662419  0.56698909  0.53615376     0.01500
C738        C  0.30410106  0.37322932  0.54309517     0.42900
C739        C  0.44090219  0.42870848  0.96449107    -0.06700
N740        N  0.33579442  0.56724805  0.94485665    -0.25500
H741        H  0.35906652  0.39495088  0.91864040     0.07100
N742        N  0.32255448  0.40686369  0.55468792    -0.46700
H743        H  0.46114574  0.42684825  0.97455985     0.07100
C744        C  0.43084746  0.60853651  0.93492201     0.42800
C745        C  0.38590412  0.42267443  0.57029840    -0.06200
Co746      Co  0.41282721  0.51122609  0.50485519     0.73800
N747        N  0.40750175  0.43002540  0.93223795    -0.46400
C748        C  0.30142138  0.64739350  0.53780822     0.43000
N749        N  0.42604191  0.58832596  0.55227074    -0.46400
Co750      Co  0.36729904  0.51172142  0.94962129     0.73900
C751        C  0.33657179  0.61264830  0.93098605    -0.06700
C752        C  0.29276502  0.40146632  0.51939998    -0.06300
N753        N  0.38161252  0.57024191  0.54722955    -0.25800
N754        N  0.30349780  0.40082392  0.95771816    -0.46600
H755        H  0.27602425  0.62472231  0.50007021     0.07100
C756        C  0.43997272  0.58773946  0.96154837    -0.06700
Cl757      Cl  0.36006567  0.51006569  0.49678942    -0.49700
C758        C  0.43318183  0.41044999  0.93707565     0.42800
H759        H  0.36577344  0.60657936  0.58254687     0.07000
N760        N  0.40315555  0.59946155  0.93412588    -0.46400
C761        C  0.19238113  0.14755813  0.56651502     0.42700
N762        N  0.21172909  0.07005570  0.56478543     0.01500
C763        C  0.20178969  0.90543587  0.67625500    -0.06300
H764        H  0.20617156  0.06916753  0.70546721     0.07000
C765        C  0.31783032  0.08509342  0.64412182    -0.06700
Co766      Co  0.19432650  0.00376452  0.61057505     0.74200
N767        N  0.21261927  0.04899401  0.66340529    -0.25900
Co768      Co  0.24691990  0.99415558  0.66019309     0.74100
C769        C  0.31614558  0.09570749  0.67256510     0.42800
N770        N  0.29226562  0.06915693  0.57949568     0.01200
N771        N  0.27951699  0.05152503  0.66019535     0.01300
N772        N  0.17282319  0.91396639  0.64069350    -0.46700
H773        H  0.16512735  0.12399219  0.60204594     0.07000
N774        N  0.19556996  0.05454725  0.64238898     0.01600
N775        N  0.28115145  0.93940335  0.65545060     0.01300
C776        C  0.31902589  0.89298179  0.66300772     0.42900
N777        N  0.27273307  0.06943281  0.56059828    -0.25300
C778        C  0.17824471  0.90534317  0.57861599    -0.06200
N779        N  0.21250674  0.11829999  0.55449914    -0.46400
N780        N  0.29460909  0.91072416  0.67426322    -0.46600
C781        C  0.19133635  0.87363894  0.55803345     0.42700
N782        N  0.19560302  0.94210530  0.63751699     0.01500
N783        N  0.27318892  0.95268906  0.55628160    -0.25300
N784        N  0.19342598  0.06688119  0.58432345    -0.25800
N785        N  0.29322683  0.94967600  0.57461399     0.01200
H786        H  0.26040697  0.90133851  0.52396442     0.07100
H787        H  0.33766408  0.91795542  0.62290992     0.07100
N788        N  0.21365760  0.93807261  0.65786620    -0.25900
N789        N  0.29540922  0.05593972  0.63853574    -0.25500
N790        N  0.21166725  0.95014816  0.56035465     0.01500
C791        C  0.17259389  0.09386468  0.67355868     0.42900
C792        C  0.27456406  0.11476805  0.54674873    -0.06700
N793        N  0.29676096  0.94394635  0.63365001    -0.25500
H794        H  0.33574365  0.08927267  0.63106822     0.07100
N795        N  0.17248521  0.08065779  0.64764613    -0.46700
H796        H  0.26035356  0.12695916  0.53082688     0.07100
C797        C  0.29809938  0.87807042  0.55108704     0.42800
C798        C  0.17981915  0.11335315  0.58652995    -0.06200
Co799      Co  0.24214334  0.01047215  0.55955008     0.73800
N800        N  0.30692102  0.11396557  0.58025414    -0.46400
C801        C  0.17450782  0.88871380  0.66417382     0.43000
N802        N  0.21221422  0.90385304  0.54776474    -0.46400
Co803      Co  0.29450853  0.00490226  0.60628799     0.73900
C804        C  0.31987087  0.91495293  0.63620121    -0.06700
C805        C  0.19944170  0.07209177  0.68465179    -0.06300
N806        N  0.19276283  0.95051892  0.57939602    -0.25800
N807        N  0.29191490  0.07372043  0.68153591    -0.46600
H808        H  0.20946644  0.89931622  0.69659471     0.07100
C809        C  0.27507355  0.91050582  0.54000642    -0.06700
Cl810      Cl  0.24459540  0.00303821  0.60965433    -0.49700
C811        C  0.29709300  0.14487263  0.55987784     0.42800
H812        H  0.16301813  0.89292910  0.59312781     0.07000
N813        N  0.30815254  0.90532423  0.57262498    -0.46400
C814        C  0.17350788  0.09665603  0.84172899     0.42700
N815        N  0.21328917  0.05727404  0.84873936     0.01500
C816        C  0.23236051  0.89847446  0.95974863    -0.06300
H817        H  0.24664020  0.12257260  0.97477246     0.07000
C818        C  0.32341360  0.10802704  0.91502631    -0.06700
Co819      Co  0.20522288  0.00448517  0.90167201     0.74200
N820        N  0.23120612  0.06444949  0.94674817    -0.25900
Co821      Co  0.26214000  0.00592344  0.94431024     0.74100
C822        C  0.31332619  0.14170274  0.93654406     0.42800
N823        N  0.29947022  0.05819164  0.85884795     0.01200
N824        N  0.29222552  0.06600345  0.93816572     0.01300
N825        N  0.19724962  0.89941445  0.92898220    -0.46700
H826        H  0.16139263  0.08989313  0.88573266     0.07000
N827        N  0.20974167  0.06434982  0.92991012     0.01600
N828        N  0.29311748  0.94711984  0.94040763     0.01300
C829        C  0.31411378  0.87112992  0.94171520     0.42900
N830        N  0.27888945  0.05791409  0.84069584    -0.25300
C831        C  0.17733322  0.91690061  0.87070139    -0.06200
N832        N  0.19689278  0.07750715  0.82939503    -0.46400
N833        N  0.29524768  0.90243972  0.95430836    -0.46600
C834        C  0.17743677  0.89700758  0.84359351     0.42700
N835        N  0.21036480  0.94550585  0.93010009     0.01500
N836        N  0.27959851  0.94488587  0.84185961    -0.25300
N837        N  0.20065665  0.06013054  0.87226283    -0.25800
N838        N  0.29972840  0.94505770  0.86047414     0.01200
H839        H  0.27770470  0.90715744  0.80264813     0.07100
H840        H  0.33655664  0.88741081  0.90215947     0.07100
N841        N  0.23173340  0.94572368  0.94717953    -0.25900
N842        N  0.30867188  0.06311676  0.91707579    -0.25500
N843        N  0.21410479  0.94532846  0.84978782     0.01500
C844        C  0.20692306  0.14012412  0.94943480     0.42900
C845        C  0.28635044  0.09112975  0.82060473    -0.06700
N846        N  0.30891589  0.94641846  0.91886355    -0.25500
H847        H  0.33714626  0.11839396  0.89870174     0.07100
N848        N  0.19506429  0.10907348  0.93042592    -0.46700
H849        H  0.27516081  0.09643620  0.80172653     0.07100
C850        C  0.31560708  0.89107693  0.83114280     0.42800
C851        C  0.17701686  0.08766981  0.87015124    -0.06200
Co852      Co  0.24641962  0.00131716  0.84435251     0.73800
N853        N  0.32019190  0.08981545  0.85263200    -0.46400
C854        C  0.20983717  0.86752923  0.94707680     0.43000
N855        N  0.20035494  0.91727809  0.83115696    -0.46400
Co856      Co  0.30447969  0.00308965  0.88899010     0.73900
C857        C  0.32340783  0.90089981  0.91837372    -0.06700
C858        C  0.23082102  0.11010901  0.96048030    -0.06300
N859        N  0.19999613  0.94723641  0.87255754    -0.25800
N860        N  0.29374339  0.11314170  0.94986464    -0.46600
H861        H  0.24844469  0.88476830  0.97356072     0.07100
C862        C  0.28812609  0.91213492  0.82193077    -0.06700
Cl863      Cl  0.25460429  0.00361974  0.89445518    -0.49700
C864        C  0.31371586  0.11290696  0.82925873     0.42800
H865        H  0.16044032  0.91598419  0.88510899     0.07000
N866        N  0.32102455  0.91414100  0.85472937    -0.46400
C867        C  0.05481394  0.37481723  0.68104970     0.42700
N868        N  0.03387507  0.38189731  0.71955905     0.01500
C869        C  0.03822905  0.15479299  0.79826840    -0.06300
H870        H  0.02599241  0.10703849  0.71591274     0.07000
C871        C  0.41942743  0.24238055  0.71595996    -0.06700
Co872      Co  0.04849256  0.28782457  0.75343881     0.74200
N873        N  0.02493721  0.18935514  0.72813157    -0.25900
Co874      Co  0.49257894  0.19865976  0.75674755     0.74100
C875        C  0.41826933  0.18621980  0.71096254     0.42800
N876        N  0.45125854  0.36522620  0.72448895     0.01200
N877        N  0.45859233  0.20534021  0.72888665     0.01300
N878        N  0.06850391  0.22254076  0.79779397    -0.46700
H879        H  0.07987304  0.30295161  0.69540030     0.07000
N880        N  0.04413600  0.22676742  0.72616170     0.01600
N881        N  0.46050975  0.20936562  0.78557133     0.01300
C882        C  0.42166744  0.19487265  0.80685924     0.42900
N883        N  0.47225171  0.39856673  0.72264596    -0.25300
C884        C  0.06960295  0.34731147  0.80352632    -0.06200
N885        N  0.03498057  0.40267852  0.69483442    -0.46400
N886        N  0.44550609  0.17164216  0.79742130    -0.46600
C887        C  0.06179878  0.39480075  0.81790338     0.42700
N888        N  0.04546352  0.23410452  0.78431168     0.01500
N889        N  0.47660907  0.40088909  0.78416225    -0.25300
N890        N  0.05089426  0.34102293  0.72201914    -0.25800
N891        N  0.45542334  0.36761652  0.78494468     0.01200
H892        H  0.49569409  0.44881828  0.81564555     0.07100
H893        H  0.40568696  0.27758645  0.79759767     0.07100
N894        N  0.02664092  0.19575973  0.78450671    -0.25900
N895        N  0.44405020  0.25008606  0.72818157    -0.25500
N896        N  0.03788594  0.39001394  0.78063020     0.01500
C897        C  0.06231763  0.16261160  0.70396602     0.42900
C898        C  0.46970248  0.42389944  0.69876410    -0.06700
N899        N  0.44647045  0.25444622  0.78518923    -0.25500
H900        H  0.40241563  0.27073866  0.71586663     0.07100
N901        N  0.06596798  0.21246518  0.71189527    -0.46700
H902        H  0.48478825  0.45141140  0.69078317     0.07100
C903        C  0.45837462  0.39593865  0.82608252     0.42800
C904        C  0.06554290  0.33499515  0.69945325    -0.06200
Co905      Co  0.50513074  0.39559501  0.75153662     0.73800
N906        N  0.43486085  0.36483760  0.70273809    -0.46400
C907        C  0.06647634  0.17307052  0.80662702     0.43000
N908        N  0.04186506  0.41924124  0.80260186    -0.46400
Co909      Co  0.44940407  0.31048244  0.75554503     0.73900
C910        C  0.42288142  0.24961182  0.79889754    -0.06700
C911        C  0.03501179  0.14615247  0.71514877    -0.06300
N912        N  0.05358897  0.34730196  0.78116220    -0.25800
N913        N  0.44332130  0.16549118  0.71924612    -0.46600
H914        H  0.02992691  0.11509063  0.79869102     0.07100
C915        C  0.47924686  0.42256570  0.80906935    -0.06700
Cl916      Cl  0.49883384  0.29743990  0.75407259    -0.49700
C917        C  0.44487968  0.40067657  0.68517923     0.42800
H918        H  0.08358735  0.31604866  0.81004721     0.07000
N919        N  0.44442376  0.36345773  0.80923243    -0.46400
C920        C  0.06795268  0.82662006  0.70518920     0.42700
N921        N  0.03244656  0.80378372  0.72899918     0.01500
C922        C  0.03107017  0.58016657  0.80800532    -0.06300
H923        H  0.01611791  0.55531669  0.69176030     0.07000
C924        C  0.43474624  0.65327981  0.70188398    -0.06700
Co925      Co  0.04918490  0.70142979  0.75526106     0.74200
N926        N  0.02915462  0.60934379  0.72326079    -0.25900
Co927      Co  0.49883807  0.60560160  0.75370077     0.74100
C928        C  0.44744507  0.61354933  0.68507462     0.42800
N929        N  0.44806613  0.76598902  0.72885207     0.01200
N930        N  0.46782963  0.61202706  0.72365667     0.01300
N931        N  0.06301878  0.64493679  0.80724491    -0.46700
H932        H  0.09041686  0.74857877  0.71247380     0.07000
N933        N  0.04783841  0.64750225  0.72369447     0.01600
N934        N  0.46818168  0.60615424  0.78382801     0.01300
C935        C  0.44766494  0.59922834  0.82217350     0.42900
N936        N  0.46597093  0.80593249  0.72956216    -0.25300
C937        C  0.07223188  0.76389882  0.80102438    -0.06200
N938        N  0.04359191  0.84475939  0.71603455    -0.46400
N939        N  0.46805963  0.57853139  0.80656462    -0.46600
C940        C  0.06933623  0.81647317  0.81193495     0.42700
N941        N  0.04914666  0.64206575  0.78407431     0.01500
N942        N  0.46639367  0.80108002  0.78606944    -0.25300
N943        N  0.04942004  0.76231649  0.72829697    -0.25800
N944        N  0.44971489  0.75945047  0.78633614     0.01200
H945        H  0.45942170  0.88098258  0.79938213     0.07100
H946        H  0.42012742  0.67135731  0.81400303     0.07100
N947        N  0.02982400  0.60517423  0.78403180    -0.25900
N948        N  0.44917352  0.65049453  0.72506466    -0.25500
N949        N  0.03321026  0.79857053  0.78656463     0.01500
C950        C  0.05048715  0.61632139  0.68334549     0.42900
C951        C  0.45390679  0.84665118  0.71595911    -0.06700
N952        N  0.44962490  0.64471860  0.78419807    -0.25500
H953        H  0.41930774  0.68287542  0.69644288     0.07100
N954        N  0.06064222  0.65344092  0.70029413    -0.46700
H955        H  0.46163016  0.88676331  0.71559648     0.07100
C956        C  0.42582486  0.81712781  0.80838341     0.42800
C957        C  0.07169135  0.77282865  0.71347661    -0.06200
Co958      Co  0.99967786  0.80387333  0.75783142     0.73800
N959        N  0.42464228  0.77685492  0.71559776    -0.46400
C960        C  0.05279066  0.60782834  0.82395235     0.43000
N961        N  0.04486386  0.83664218  0.80153863    -0.46400
Co962      Co  0.44911254  0.70448646  0.75608181     0.73900
C963        C  0.43536869  0.64273746  0.80723675    -0.06700
C964        C  0.03014620  0.58579985  0.69891666    -0.06300
N965        N  0.04995467  0.75691474  0.78530339    -0.25800
N966        N  0.46771074  0.58904849  0.69963415    -0.46600
H967        H  0.01653485  0.55030894  0.81423046     0.07100
C968        C  0.45284843  0.84023437  0.79935442    -0.06700
Cl969      Cl  0.49918649  0.70424942  0.75569676    -0.49700
C970        C  0.42649316  0.82634557  0.70655800     0.42800
H971        H  0.09071312  0.73889972  0.80070522     0.07000
N972        N  0.42634533  0.76738961  0.79950666    -0.46400
C973        C  0.37699182  0.80438915  0.82305395    -0.12100
C974        C  0.39749445  0.84005320  0.81382251     0.04900
C975        C  0.38857097  0.89076831  0.80545298    -0.07400
C976        C  0.35984241  0.90453127  0.80682536    -0.08100
C977        C  0.33968483  0.86881740  0.81660644    -0.02700
C978        C  0.34848171  0.81780880  0.82401494     0.04200
N979        N  0.32871116  0.78004004  0.83393589     0.66700
H980        H  0.38310266  0.76479668  0.82911768     0.15600
H981        H  0.35363782  0.94497329  0.80260280     0.15300
N982        N  0.40830788  0.92963741  0.79698470     0.74400
O983        O  0.33429435  0.75347590  0.85485324    -0.39100
O984        O  0.30668196  0.77004041  0.82052644    -0.39000
O985        O  0.40526721  0.95148176  0.77428911    -0.39700
O986        O  0.42478358  0.94986224  0.81415374    -0.39800
C987        C  0.11463605  0.81095735  0.83568990    -0.12100
C988        C  0.09475756  0.84405808  0.82284315     0.04900
C989        C  0.10289731  0.89642799  0.81627469    -0.07400
C990        C  0.13149474  0.91108502  0.81979666    -0.08100
C991        C  0.15138798  0.87614506  0.83129241    -0.02700
C992        C  0.14243713  0.82619968  0.83964860     0.04200
N993        N  0.16134767  0.79096006  0.85323609     0.66700
H994        H  0.10873646  0.77163851  0.84213469     0.15600
H995        H  0.13790393  0.95115025  0.81539181     0.15300
N996        N  0.08262362  0.93582617  0.80804416     0.74400
O997        O  0.16116602  0.78811160  0.87858958    -0.39100
O998        O  0.17549439  0.75806390  0.83989104    -0.39000
O999        O  0.05809997  0.93484452  0.81746239    -0.39700
O1000       O  0.09066537  0.97746966  0.79646361    -0.39800
C1001       C  0.37393243  0.20137967  0.82540376    -0.12100
C1002       C  0.39373954  0.17017597  0.81171442     0.04900
C1003       C  0.38420181  0.12366785  0.79874371    -0.07400
C1004       C  0.35565721  0.10905619  0.80064966    -0.08100
C1005       C  0.33635843  0.14007450  0.81505399    -0.02700
C1006       C  0.34561912  0.18761556  0.82652824     0.04200
N1007       N  0.32658407  0.22072076  0.84102250     0.66700
H1008       H  0.38028170  0.23785378  0.83491752     0.15600
H1009       H  0.34908036  0.07103983  0.79282306     0.15300
N1010       N  0.40297319  0.09063314  0.78390568     0.74400
O1011       O  0.30788547  0.24647797  0.82841806    -0.39100
O1012       O  0.33005206  0.22807794  0.86596390    -0.39000
O1013       O  0.42388759  0.06982368  0.79566164    -0.39700
O1014       O  0.39601414  0.07481878  0.76068366    -0.39800
C1015       C  0.09410607  0.10554373  0.83158065    -0.12100
C1016       C  0.09269507  0.14235584  0.81079754     0.04900
C1017       C  0.11788992  0.15660836  0.79729756    -0.07400
C1018       C  0.14384475  0.13742858  0.80651388    -0.08100
C1019       C  0.14553337  0.10451615  0.82887837    -0.02700
C1020       C  0.12014082  0.08612819  0.84074491     0.04200
N1021       N  0.12019750  0.04878566  0.86245709     0.66700
H1022       H  0.07501691  0.09389166  0.84169100     0.15600
H1023       H  0.16298124  0.15069332  0.79700498     0.15300
N1024       N  0.11769223  0.19207829  0.77476913     0.74400
O1025       O  0.10515699  0.05677379  0.88286871    -0.39100
O1026       O  0.13329470  0.00564748  0.86029965    -0.39000
O1027       O  0.13605811  0.22774804  0.77293289    -0.39700
O1028       O  0.10078376  0.18478147  0.75545999    -0.39800
C1029       C  0.36614140  0.85140546  0.65964896    -0.12100
C1030       C  0.34561602  0.87410942  0.67640979     0.04900
C1031       C  0.35317932  0.88481602  0.70344329    -0.07400
C1032       C  0.38081492  0.87375435  0.71269922    -0.08100
C1033       C  0.40129178  0.85280991  0.69529923    -0.02700
C1034       C  0.39353402  0.84114126  0.66865563     0.04200
N1035       N  0.41311436  0.81669182  0.65074080     0.66700
H1036       H  0.36124946  0.84258877  0.63888347     0.15600
H1037       H  0.38598996  0.87959376  0.73378698     0.15300
N1038       N  0.33324759  0.90664757  0.72167568     0.74400
O1039       O  0.40689163  0.77393791  0.63908732    -0.39100
O1040       O  0.43680624  0.83743771  0.64678582    -0.39000
O1041       O  0.31900599  0.87626273  0.73631130    -0.39700
O1042       O  0.33328806  0.95561192  0.72639837    -0.39800
C1043       C  0.14151614  0.87921513  0.70315921    -0.12100
C1044       C  0.14769162  0.87020237  0.67599849     0.04900
C1045       C  0.12557502  0.85381471  0.65840969    -0.07400
C1046       C  0.09815765  0.84905171  0.66796272    -0.08100
C1047       C  0.09210071  0.85652307  0.69505862    -0.02700
C1048       C  0.11406038  0.87165978  0.71277256     0.04200
N1049       N  0.10873007  0.87857672  0.74073282     0.66700
H1050       H  0.15780949  0.89288621  0.71683760     0.15600
H1051       H  0.08186859  0.83441763  0.65451840     0.15300
N1052       N  0.13067912  0.84014995  0.63083026     0.74400
O1053       O  0.11582921  0.84313404  0.75735558    -0.39100
O1054       O  0.10044469  0.92290605  0.74909361    -0.39000
O1055       O  0.15076999  0.80966582  0.62499359    -0.39700
O1056       O  0.11300026  0.85271640  0.61278093    -0.39800
C1057       C  0.39272801  0.11020958  0.69132702    -0.12100
C1058       C  0.39181927  0.15599684  0.70692588     0.04900
C1059       C  0.36522976  0.17446612  0.71619142    -0.07400
C1060       C  0.34040814  0.15081287  0.70662165    -0.08100
C1061       C  0.34142794  0.10824873  0.68891183    -0.02700
C1062       C  0.36791595  0.08572847  0.68257234     0.04200
N1063       N  0.36994546  0.03871384  0.66665813     0.66700
H1064       H  0.41282696  0.09449226  0.68500846     0.15600
H1065       H  0.32018739  0.16723006  0.71208477     0.15300
N1066       N  0.36284640  0.21664951  0.73534365     0.74400
O1067       O  0.38667973  0.03657679  0.64712139    -0.39100
O1068       O  0.35715778  0.99755873  0.67379544    -0.39000
O1069       O  0.34292135  0.24956520  0.73343907    -0.39700
O1070       O  0.37814478  0.21674678  0.75622282    -0.39800
C1071       C  0.12926826  0.14463840  0.66758648    -0.12100
C1072       C  0.14525068  0.11178212  0.68472954     0.04900
C1073       C  0.13182076  0.08884289  0.70710693    -0.07400
C1074       C  0.10317362  0.10069658  0.71219915    -0.08100
C1075       C  0.08743926  0.13351493  0.69457890    -0.02700
C1076       C  0.10082028  0.15417484  0.67183217     0.04200
N1077       N  0.08573496  0.18680484  0.65311928     0.66700
H1078       H  0.13877144  0.16170316  0.64983607     0.15600
H1079       H  0.09355094  0.08586587  0.73036771     0.15300
N1080       N  0.14663824  0.05290382  0.72433436     0.74400
O1081       O  0.08951595  0.23605068  0.65325928    -0.39100
O1082       O  0.07250473  0.16581563  0.63377669    -0.39000
O1083       O  0.15482256  0.06758093  0.74738160    -0.39700
O1084       O  0.15078456  0.00590476  0.71688143    -0.39800
C1085       C  0.31789751  0.73139558  0.56016469    -0.12100
C1086       C  0.30117019  0.70701039  0.54021035     0.04900
C1087       C  0.28576277  0.74057174  0.52256035    -0.07400
C1088       C  0.28768561  0.79579193  0.52485307    -0.08100
C1089       C  0.30251457  0.81993653  0.54603198    -0.02700
C1090       C  0.31836729  0.78678520  0.56344487     0.04200
N1091       N  0.33407273  0.80818162  0.58543504     0.66700
H1092       H  0.33023003  0.70728405  0.57393284     0.15600
H1093       H  0.27583082  0.81982582  0.51077901     0.15300
N1094       N  0.26499436  0.71998828  0.50468736     0.74400
O1095       O  0.32638801  0.79862898  0.60916865    -0.39100
O1096       O  0.35801170  0.82779481  0.58137835    -0.39000
O1097       O  0.24342260  0.69969806  0.51481563    -0.39700
O1098       O  0.26461837  0.73479912  0.98046338    -0.39800
C1099       C  0.29738190  0.28050870  0.52685818    -0.12100
C1100       C  0.30374580  0.31469866  0.54827674     0.04900
C1101       C  0.31210715  0.29168319  0.57322783    -0.07400
C1102       C  0.31106919  0.23614266  0.57679629    -0.08100
C1103       C  0.30308776  0.20252540  0.55551971    -0.02700
C1104       C  0.29829454  0.22541080  0.53002321     0.04200
N1105       N  0.29591746  0.19287054  0.50670508     0.66700
H1106       H  0.29325165  0.29639283  0.50698255     0.15600
H1107       H  0.31579711  0.21951597  0.59643916     0.15300
N1108       N  0.32180576  0.32382502  0.59510026     0.74400
O1109       O  0.27566299  0.19943110  0.49055829    -0.39100
O1110       O  0.31468285  0.15904180  0.50163162    -0.39000
O1111       O  0.30542522  0.35630637  0.60619389    -0.39700
O1112       O  0.34637755  0.31753664  0.60439624    -0.39800
C1113       C  0.29428694  0.72976193  0.92343075    -0.12100
C1114       C  0.31160390  0.70074007  0.94100426     0.04900
C1115       C  0.33038515  0.72812617  0.95832002    -0.07400
C1116       C  0.33005243  0.78366816  0.95892187    -0.08100
C1117       C  0.31213171  0.81271129  0.94190276    -0.02700
C1118       C  0.29458119  0.78537266  0.92335579     0.04200
N1119       N  0.27799977  0.81312988  0.90350670     0.66700
H1120       H  0.28084458  0.70897473  0.90929829     0.15600
H1121       H  0.34439582  0.80430451  0.97232114     0.15300
N1122       N  0.35101953  0.70039118  0.97421265     0.74400
O1123       O  0.27688465  0.79651097  0.87956167    -0.39100
O1124       O  0.26343388  0.85279060  0.90993306    -0.39000
O1125       O  0.37633147  0.71316174  0.47311208    -0.39700
O1126       O  0.34362305  0.66323828  0.48979005    -0.39800
C1127       C  0.29038595  0.23051551  0.93875549    -0.12100
C1128       C  0.31507244  0.20050688  0.93651124     0.04900
C1129       C  0.34064817  0.22737361  0.93228176    -0.07400
C1130       C  0.34127284  0.28300995  0.93237571    -0.08100
C1131       C  0.31678815  0.31296156  0.93698282    -0.02700
C1132       C  0.29120456  0.28584429  0.93966596     0.04200
N1133       N  0.26580302  0.31405997  0.94393591     0.66700
H1134       H  0.27024591  0.21086952  0.94018834     0.15600
H1135       H  0.36128799  0.30256457  0.92992151     0.15300
N1136       N  0.36626929  0.19884655  0.92835179     0.74400
O1137       O  0.25192394  0.33218568  0.42374984    -0.39100
O1138       O  0.25931471  0.32667841  0.96758946    -0.39000
O1139       O  0.37937206  0.20360040  0.90651624    -0.39700
O1140       O  0.37765522  0.17465414  0.94784808    -0.39800
C1141       C  0.43425066  0.55537166  0.89366420    -0.12100
C1142       C  0.44472606  0.59857744  0.90870896     0.04900
C1143       C  0.45896906  0.63883648  0.89501924    -0.07400
C1144       C  0.46072774  0.63723048  0.86675217    -0.08100
C1145       C  0.44781339  0.59648175  0.85181906    -0.02700
C1146       C  0.43391645  0.55560241  0.86542701     0.04200
N1147       N  0.41661225  0.51807528  0.85116880     0.66700
H1148       H  0.42257170  0.52485983  0.90394539     0.15600
H1149       H  0.47140382  0.66884947  0.85631831     0.15300
N1150       N  0.47061856  0.68252987  0.90943035     0.74400
O1151       O  0.41183591  0.47339280  0.86138644    -0.39100
O1152       O  0.40166473  0.53303049  0.83141160    -0.39000
O1153       O  0.49314821  0.67649930  0.92272915    -0.39700
O1154       O  0.46070956  0.72834073  0.90590482    -0.39800
C1155       C  0.41998292  0.57669008  0.64850611    -0.12100
C1156       C  0.44239865  0.60824685  0.65607288     0.04900
C1157       C  0.45620931  0.63919462  0.63647891    -0.07400
C1158       C  0.44703463  0.63694633  0.60936625    -0.08100
C1159       C  0.42348055  0.60692984  0.60188914    -0.02700
C1160       C  0.40999509  0.57626033  0.62213811     0.04200
N1161       N  0.38590004  0.54426412  0.61692211     0.66700
H1162       H  0.40916512  0.55357493  0.66359318     0.15600
H1163       H  0.45731080  0.66098638  0.59435773     0.15300
N1164       N  0.47861101  0.67445612  0.64375809     0.74400
O1165       O  0.38961313  0.49550710  0.61360775    -0.39100
O1166       O  0.36235488  0.55980709  0.62541019    -0.39000
O1167       O  0.49878777  0.68126386  0.62784810    -0.39700
O1168       O  0.47621175  0.70478030  0.66377774    -0.39800
C1169       C  0.47433028  0.42268518  0.87319132    -0.12100
C1170       C  0.45729132  0.39096887  0.85641629     0.04900
C1171       C  0.43924377  0.35450830  0.86928215    -0.07400
C1172       C  0.43600933  0.35546878  0.89726188    -0.08100
C1173       C  0.44953895  0.39303602  0.91338640    -0.02700
C1174       C  0.47043257  0.42465154  0.90146135     0.04200
N1175       N  0.48723303  0.45984031  0.91740451     0.66700
H1176       H  0.48953325  0.44780598  0.86418372     0.15600
H1177       H  0.42006608  0.33049822  0.90607053     0.15300
N1178       N  0.42249459  0.31784144  0.85446894     0.74400
O1179       O  0.51366898  0.45633299  0.91687406    -0.39100
O1180       O  0.47597182  0.49672022  0.93055478    -0.39000
O1181       O  0.42566573  0.26915628  0.85912794    -0.39700
O1182       O  0.39992065  0.33380931  0.84360051    -0.39800
C1183       C  0.44797188  0.44136492  0.63880659    -0.12100
C1184       C  0.43757087  0.40116553  0.65552854     0.04900
C1185       C  0.42264676  0.35925379  0.64300136    -0.07400
C1186       C  0.41773361  0.35951206  0.61505032    -0.08100
C1187       C  0.42885558  0.39876635  0.59836656    -0.02700
C1188       C  0.44586039  0.43819553  0.61037663     0.04200
N1189       N  0.46177299  0.47385494  0.59406428     0.66700
H1190       H  0.45903168  0.47416938  0.64790094     0.15600
H1191       H  0.40452974  0.32909271  0.60629919     0.15300
N1192       N  0.41242714  0.31553783  0.65814471     0.74400
O1193       O  0.46675887  0.52005869  0.60224040    -0.39100
O1194       O  0.47606558  0.45568566  0.57487677    -0.39000
O1195       O  0.38781159  0.31705681  0.66733755    -0.39700
O1196       O  0.42524703  0.27189228  0.65698505    -0.39800
C1197       C  0.19849214  0.72982563  0.97485999    -0.12100
C1198       C  0.20097070  0.69768809  0.95197880     0.04900
C1199       C  0.20504694  0.72216729  0.92670208    -0.07400
C1200       C  0.20748678  0.77771677  0.92508606    -0.08100
C1201       C  0.20581773  0.80930062  0.94828993    -0.02700
C1202       C  0.20118299  0.78481660  0.97307708     0.04200
N1203       N  0.20044829  0.81553172  0.49704433     0.66700
H1204       H  0.19463963  0.71209349  0.99432766     0.15600
H1205       H  0.21126546  0.79611653  0.90576288     0.15300
N1206       N  0.20778360  0.69121275  0.90276050     0.74400
O1207       O  0.18218743  0.85155702  0.49914348    -0.39100
O1208       O  0.22278078  0.81838950  0.51078546    -0.39000
O1209       O  0.18743768  0.66361925  0.89445241    -0.39700
O1210       O  0.22914619  0.69640905  0.88816024    -0.39800
C1211       C  0.20571795  0.27848750  0.97946508    -0.12100
C1212       C  0.19793204  0.30977813  0.95728920     0.04900
C1213       C  0.18954006  0.28408850  0.93323283    -0.07400
C1214       C  0.19156982  0.22866542  0.93112178    -0.08100
C1215       C  0.20121140  0.19783318  0.95291419    -0.02700
C1216       C  0.20698378  0.22324343  0.97760017     0.04200
N1217       N  0.21229415  0.19282048  0.50176657     0.66700
H1218       H  0.21039552  0.29699782  0.99863415     0.15600
H1219       H  0.18634430  0.20991403  0.91211950     0.15300
N1220       N  0.17943088  0.31366320  0.91060027     0.74400
O1221       O  0.22805330  0.21093737  0.52012261    -0.39100
O1222       O  0.19833043  0.15140625  0.50595221    -0.39000
O1223       O  0.19656495  0.33179662  0.89375496    -0.39700
O1224       O  0.15342667  0.31491068  0.90535939    -0.39800
C1225       C  0.17084888  0.72909314  0.55069168    -0.12100
C1226       C  0.19543654  0.70282385  0.55927796     0.04900
C1227       C  0.21857151  0.73317990  0.56878282    -0.07400
C1228       C  0.21654347  0.78894158  0.56806372    -0.08100
C1229       C  0.19198116  0.81488079  0.55910856    -0.02700
C1230       C  0.16863741  0.78434096  0.55104589     0.04200
N1231       N  0.14288631  0.80864886  0.54217684     0.66700
H1232       H  0.15291685  0.70624093  0.54385391     0.15600
H1233       H  0.23428177  0.81263014  0.57457097     0.15300
N1234       N  0.24368274  0.70902934  0.57995418     0.74400
O1235       O  0.12981215  0.83943471  0.55763009    -0.39100
O1236       O  0.13105946  0.79326157  0.52071695    -0.39000
O1237       O  0.24876658  0.66045266  0.57695562    -0.39700
O1238       O  0.26095717  0.73644999  0.59338002    -0.39800
C1239       C  0.17603042  0.29146712  0.55118007    -0.12100
C1240       C  0.19796409  0.31771664  0.56481738     0.04900
C1241       C  0.21719919  0.28771328  0.58071882    -0.07400
C1242       C  0.21475416  0.23202131  0.58089974    -0.08100
C1243       C  0.19274707  0.20617330  0.56729213    -0.02700
C1244       C  0.17277583  0.23646019  0.55294054     0.04200
N1245       N  0.14909815  0.21191001  0.54010999     0.66700
H1246       H  0.16071365  0.31425695  0.53972269     0.15600
H1247       H  0.22987170  0.20831372  0.59207518     0.15300
N1248       N  0.23861851  0.31231397  0.59726288     0.74400
O1249       O  0.14272714  0.22377862  0.01621050    -0.39100
O1250       O  0.13209544  0.18532996  0.55393990    -0.39000
O1251       O  0.23758978  0.36092930  0.60280517    -0.39700
O1252       O  0.25705577  0.28425649  0.60892571    -0.39800
C1253       C  0.04972348  0.58340037  0.90074209    -0.12100
C1254       C  0.06965419  0.61976873  0.91016382     0.04900
C1255       C  0.08155442  0.65508462  0.89152239    -0.07400
C1256       C  0.07576084  0.64990127  0.86392119    -0.08100
C1257       C  0.05732798  0.61098678  0.85395994    -0.02700
C1258       C  0.04337007  0.57898803  0.87302649     0.04200
N1259       N  0.02339119  0.54047419  0.86481840     0.66700
H1260       H  0.04067435  0.55534262  0.91464008     0.15600
H1261       H  0.08612602  0.67659897  0.85019587     0.15300
N1262       N  0.10082505  0.69491689  0.90031438     0.74400
O1263       O  0.03162460  0.49913805  0.85319736    -0.39100
O1264       O  0.99891056  0.54235668  0.87415690    -0.39000
O1265       O  0.12553911  0.69551390  0.89135647    -0.39700
O1266       O  0.09200621  0.73355034  0.91390990    -0.39800
C1267       C  0.06707873  0.66095993  0.61129315    -0.12100
C1268       C  0.06211870  0.61467281  0.59655883     0.04900
C1269       C  0.05161722  0.57030905  0.61039464    -0.07400
C1270       C  0.04713817  0.57224597  0.63830812    -0.08100
C1271       C  0.05342638  0.61761561  0.65333163    -0.02700
C1272       C  0.06285359  0.66286669  0.63928288     0.04200
N1273       N  0.06874562  0.71100527  0.65307569     0.66700
H1274       H  0.07612499  0.69490436  0.60132207     0.15600
H1275       H  0.04062028  0.53669809  0.64857001     0.15300
N1276       N  0.05089583  0.52017023  0.59754932     0.74400
O1277       O  0.09395422  0.72412396  0.65738901    -0.39100
O1278       O  0.04940959  0.74474204  0.65583098    -0.39000
O1279       O  0.07219501  0.49064605  0.59932226    -0.39700
O1280       O  0.03109913  0.50871467  0.58153511    -0.39800
C1281       C  0.05212080  0.36725925  0.86536785    -0.12100
C1282       C  0.06548735  0.40200743  0.84741636     0.04900
C1283       C  0.08301166  0.44183091  0.85793642    -0.07400
C1284       C  0.08572797  0.44755033  0.88599141    -0.08100
C1285       C  0.07421318  0.41042600  0.90407009    -0.02700
C1286       C  0.05692131  0.37036938  0.89341738     0.04200
N1287       N  0.04569337  0.33055784  0.91055868     0.66700
H1288       H  0.03888573  0.33603162  0.85745245     0.15600
H1289       H  0.09926992  0.47853569  0.89367428     0.15300
N1290       N  0.09930931  0.47483092  0.84050545     0.74400
O1291       O  0.52008699  0.33231505  0.91689466    -0.39100
O1292       O  0.05993468  0.28949840  0.91554254    -0.39000
O1293       O  0.10348748  0.52262767  0.84648678    -0.39700
O1294       O  0.11313412  0.45443318  0.82156891    -0.39800
C1295       C  0.04699537  0.38662054  0.60380136    -0.12100
C1296       C  0.07360178  0.36982914  0.59537441     0.04900
C1297       C  0.09249477  0.34910422  0.61509361    -0.07400
C1298       C  0.08618468  0.35367413  0.64257032    -0.08100
C1299       C  0.06046284  0.37425269  0.65130356    -0.02700
C1300       C  0.04043741  0.38847710  0.63144114     0.04200
N1301       N  0.01327769  0.40506943  0.63907684     0.66700
H1302       H  0.03203742  0.40201582  0.58917781     0.15600
H1303       H  0.10165985  0.34075705  0.65730588     0.15300
N1304       N  0.11875831  0.32531243  0.60743027     0.74400
O1305       O  0.00877121  0.45361948  0.64266206    -0.39100
O1306       O  0.49636097  0.37125884  0.64796918    -0.39000
O1307       O  0.13963429  0.32572585  0.62335265    -0.39700
O1308       O  0.12034539  0.29934624  0.58580645    -0.39800
C1309       C  0.69846463  0.37698947  0.06350080     0.42700
N1310       N  0.69535646  0.44979320  0.04063286     0.01500
C1311       C  0.56782501  0.58601226  0.04498816    -0.06300
H1312       H  0.55255730  0.40548456  0.03630557     0.07000
C1313       C  0.61632371  0.41755975  0.43449324    -0.06700
Co1314     Co  0.64292133  0.50825855  0.05434890     0.74200
N1315       N  0.59244118  0.44685966  0.03441238    -0.25900
Co1316     Co  0.59218716  0.50372013  0.00230761     0.74100
C1317       C  0.58658061  0.40709124  0.43194276     0.42800
N1318       N  0.67982037  0.44611209  0.46162783     0.01200
N1319       N  0.59534287  0.44792438  0.46986667     0.01300
N1320       N  0.60455570  0.59143309  0.07334264    -0.46700
H1321       H  0.65981071  0.39815743  0.08804184     0.07000
N1322       N  0.61341710  0.44885627  0.05209386     0.01600
N1323       N  0.59458047  0.56005147  0.47080886     0.01300
C1324       C  0.58472628  0.60912797  0.43605839     0.42900
N1325       N  0.69824949  0.44627843  0.48156248    -0.25300
C1326       C  0.67190436  0.61354313  0.06925203    -0.06200
N1327       N  0.70983101  0.40495245  0.04302533    -0.46400
N1328       N  0.57377463  0.58655277  0.45859688    -0.46600
C1329       C  0.69513277  0.64463709  0.05897924     0.42700
N1330       N  0.61089801  0.56334920  0.05190791     0.01500
N1331       N  0.69797446  0.56434047  0.47991426    -0.25300
N1332       N  0.67435502  0.45176416  0.05753546    -0.25800
N1333       N  0.67912427  0.56402719  0.46042841     0.01200
H1334       H  0.72814967  0.62138018  0.49197783     0.07100
H1335       H  0.62768938  0.59352760  0.41782214     0.07100
N1336       N  0.58992194  0.55965019  0.03434259    -0.27700
N1337       N  0.61925943  0.44617398  0.45670484    -0.25500
N1338       N  0.69395442  0.56860417  0.03897034     0.01500
C1339       C  0.58596910  0.39142497  0.07004182     0.42900
C1340       C  0.71128987  0.39911021  0.48188709    -0.06700
N1341       N  0.61757516  0.56052004  0.45606593    -0.25500
H1342       H  0.63143922  0.41761330  0.41835853     0.07100
N1343       N  0.61033998  0.41691146  0.07263308    -0.46700
H1344       H  0.72629049  0.38608290  0.49691131     0.07100
C1345       C  0.70010291  0.63886057  0.45558656     0.42800
C1346       C  0.67516989  0.40869879  0.07319532    -0.06200
Co1347     Co  0.69750263  0.50694705  0.51030827     0.73800
N1348       N  0.67879724  0.40029563  0.44872187    -0.46400
C1349       C  0.57788879  0.60793529  0.07104589     0.43000
N1350       N  0.70754367  0.61441529  0.03987146    -0.46400
Co1351     Co  0.64925134  0.50438408  0.45864819     0.73900
C1352       C  0.61369974  0.59180372  0.43483581    -0.06700
C1353       C  0.57336763  0.41229028  0.04452201    -0.06300
N1354       N  0.67255150  0.56800739  0.05555469    -0.25800
N1355       N  0.57468635  0.42749330  0.45470015    -0.46600
H1356       H  0.54652928  0.58479623  0.03719046     0.07100
C1357       C  0.71259820  0.60946319  0.47821648    -0.06700
Cl1358     Cl  0.64536537  0.50618475  0.00635768    -0.49700
C1359       C  0.69798565  0.36810377  0.46030083     0.42800
H1360       H  0.65567740  0.62561940  0.08302956     0.07000
N1361       N  0.67927187  0.60801310  0.44579981    -0.46400
C1362       C  0.91562667  0.40650699  0.07138926     0.42700
N1363       N  0.90791565  0.45516531  0.03597223     0.01500
C1364       C  0.79020054  0.61391841  0.01622711    -0.06300
H1365       H  0.77921554  0.38698010  0.00404319     0.07000
C1366       C  0.84129132  0.40500476  0.43133398    -0.06700
Co1367     Co  0.85230113  0.51156633  0.04395740     0.74200
N1368       N  0.80636411  0.44853149  0.01899931    -0.25900
Co1369     Co  0.80821249  0.50711645  0.48879596     0.74100
C1370       C  0.81810437  0.37166835  0.43978804     0.42800
N1371       N  0.89911989  0.45675086  0.45344043     0.01200
N1372       N  0.81564962  0.44745461  0.45995084     0.01300
N1373       N  0.82079792  0.61631403  0.05079275    -0.46700
H1374       H  0.87087749  0.41919812  0.08603356     0.07000
N1375       N  0.82316860  0.45089345  0.04016085     0.01600
N1376       N  0.81252486  0.56614315  0.45919226     0.01300
C1377       C  0.81162872  0.64223145  0.43910324     0.42900
N1378       N  0.91794417  0.45651761  0.47319318    -0.25300
C1379       C  0.88318576  0.60196620  0.06850738    -0.06200
N1380       N  0.92781510  0.42867103  0.04941288    -0.46400
N1381       N  0.79799701  0.61083816  0.45676025    -0.46600
C1382       C  0.91280179  0.61020819  0.07359733     0.42700
N1383       N  0.82143788  0.56972827  0.03848036     0.01500
N1384       N  0.91649378  0.56678140  0.47307553    -0.25300
N1385       N  0.88393744  0.45493254  0.04915994    -0.25800
N1386       N  0.89572716  0.57212739  0.45541872     0.01200
H1387       H  0.96091542  0.58151722  0.46884729     0.07100
H1388       H  0.85356488  0.62610999  0.41882332     0.07100
N1389       N  0.80421907  0.56764718  0.01766386    -0.25900
N1390       N  0.83837460  0.45026471  0.44510325    -0.25500
N1391       N  0.90705810  0.56708055  0.03615413     0.01500
C1392       C  0.80465436  0.37321844  0.04313457     0.42900
C1393       C  0.94056060  0.42870411  0.46451683    -0.06700
N1394       N  0.83547223  0.56717262  0.44476318    -0.25500
H1395       H  0.85876665  0.39483873  0.41862684     0.07100
N1396       N  0.82308427  0.40688586  0.05473144    -0.46700
H1397       H  0.96079183  0.42688315  0.47461072     0.07100
C1398       C  0.93058992  0.60832990  0.43490118     0.42800
C1399       C  0.88632444  0.42265919  0.07031104    -0.06200
Co1400     Co  0.91324228  0.51126445  0.00487733     0.73800
N1401       N  0.90720337  0.42996157  0.43222045    -0.46400
C1402       C  0.80170325  0.64733953  0.03793730     0.43000
N1403       N  0.92646893  0.58860381  0.05221282    -0.46400
Co1404     Co  0.86696349  0.51164101  0.44955896     0.73900
C1405       C  0.83628193  0.61258549  0.43090724    -0.06700
C1406       C  0.79324893  0.40147742  0.01947883    -0.06300
N1407       N  0.88204800  0.57037342  0.04722723    -0.25800
N1408       N  0.80315115  0.40076794  0.45763699    -0.46600
H1409       H  0.77623520  0.62459593  0.00017537     0.07100
C1410       C  0.93965013  0.58761024  0.46156263    -0.06700
Cl1411     Cl  0.86046363  0.51011804  0.99684869    -0.49700
C1412       C  0.93288514  0.41042346  0.43709794     0.42800
H1413       H  0.86619625  0.60704690  0.08245547     0.07000
N1414       N  0.90289882  0.59924814  0.43404664    -0.46400
C1415       C  0.69292128  0.14818590  0.06611714     0.42700
N1416       N  0.71215605  0.07060243  0.06439655     0.01500
C1417       C  0.70153860  0.90624897  0.17589122    -0.06300
H1418       H  0.70602494  0.06945663  0.20508079     0.07000
C1419       C  0.81785710  0.08546479  0.14397371    -0.06700
Co1420     Co  0.69445544  0.00445993  0.11013801     0.74200
N1421       N  0.71261077  0.04961393  0.16300626    -0.25900
Co1422     Co  0.74686178  0.99466078  0.15991131     0.74100
C1423       C  0.81608289  0.09618076  0.17240032     0.42800
N1424       N  0.79263652  0.06926311  0.07931477     0.01200
N1425       N  0.77950577  0.05192474  0.15997446     0.01300
N1426       N  0.67266151  0.91495179  0.14027838    -0.46700
H1427       H  0.66547625  0.12469205  0.10151603     0.07000
N1428       N  0.69562822  0.05529162  0.14194753     0.01600
N1429       N  0.78106050  0.93978748  0.15531583     0.01300
C1430       C  0.81887841  0.89328341  0.16299914     0.42900
N1431       N  0.77317331  0.06961555  0.06035542    -0.25300
C1432       C  0.67840862  0.90604551  0.07821207    -0.06200
N1433       N  0.71306134  0.11887476  0.05414976    -0.46400
N1434       N  0.79444978  0.91114065  0.17418766    -0.46600
C1435       C  0.69156874  0.87419363  0.05773523     0.42700
N1436       N  0.69553018  0.94284660  0.13711463     0.01500
N1437       N  0.77346661  0.95284642  0.05612905    -0.25300
N1438       N  0.69376009  0.06749496  0.08386030    -0.25800
N1439       N  0.79343175  0.94981039  0.07453329     0.01200
H1440       H  0.76073011  0.90137184  0.02383890     0.07100
H1441       H  0.83764902  0.91807461  0.12293989     0.07100
N1442       N  0.71353051  0.93872266  0.15750367    -0.25900
N1443       N  0.79546948  0.05625007  0.13836003    -0.25500
N1444       N  0.71193196  0.95067067  0.06001036     0.01500
C1445       C  0.67255467  0.09437849  0.17312726     0.42900
C1446       C  0.77514540  0.11489370  0.04647707    -0.06700
N1447       N  0.79673650  0.94421986  0.13355543    -0.25500
H1448       H  0.83580642  0.08962420  0.13096394     0.07100
N1449       N  0.67251861  0.08136632  0.14718579    -0.46700
H1450       H  0.76099844  0.12714928  0.03051586     0.07100
C1451       C  0.79827947  0.87805186  0.05113230     0.42800
C1452       C  0.68020805  0.11401131  0.08604175    -0.06200
Co1453     Co  0.74249412  0.01082888  0.05926050     0.73800
N1454       N  0.80738497  0.11395612  0.08008544    -0.46400
C1455       C  0.67422014  0.88977329  0.16378584     0.43000
N1456       N  0.71250174  0.90430231  0.04749350    -0.46400
Co1457     Co  0.79465929  0.00510857  0.10615908     0.73900
C1458       C  0.81981147  0.91516162  0.13618281    -0.06700
C1459       C  0.69937256  0.07256902  0.18425004    -0.06300
N1460       N  0.69295244  0.95118430  0.07898217    -0.25800
N1461       N  0.79182929  0.07421422  0.18132634    -0.46600
H1462       H  0.70914405  0.90017786  0.19625847     0.07100
C1463       C  0.77534852  0.91055872  0.03991880    -0.06700
Cl1464     Cl  0.74473271  0.00347851  0.10936988    -0.49700
C1465       C  0.79769909  0.14486563  0.05965340     0.42800
H1466       H  0.66313748  0.89374431  0.09269779     0.07000
N1467       N  0.80829535  0.90537051  0.07265935    -0.46400
C1468       C  0.67329465  0.09649419  0.34210024     0.42700
N1469       N  0.71310953  0.05716541  0.34906698     0.01500
C1470       C  0.73231101  0.89813971  0.45998179    -0.06300
H1471       H  0.74650588  0.12224683  0.47511259     0.07000
C1472       C  0.82325443  0.10792472  0.41524507    -0.06700
Co1473     Co  0.70510174  0.00426254  0.40199175     0.74200
N1474       N  0.73108091  0.06415580  0.44707236    -0.25900
Co1475     Co  0.76203864  0.00572629  0.44458493     0.74100
C1476       C  0.81315468  0.14161941  0.43674229     0.42800
N1477       N  0.79932739  0.05808036  0.35909098     0.01200
N1478       N  0.79208625  0.06589158  0.43841106     0.01300
N1479       N  0.69717698  0.89913502  0.42924201    -0.46700
H1480       H  0.66124341  0.08968566  0.38612368     0.07000
N1481       N  0.70959937  0.06402945  0.43025800     0.01600
N1482       N  0.79303748  0.94701120  0.44066041     0.01300
C1483       C  0.81403321  0.87103077  0.44192579     0.42900
N1484       N  0.77873847  0.05779946  0.34094663    -0.25300
C1485       C  0.67719503  0.91681298  0.37102817    -0.06200
N1486       N  0.69668261  0.07739976  0.32974454    -0.46400
N1487       N  0.79517679  0.90231583  0.45454283    -0.46600
C1488       C  0.67722828  0.89704354  0.34390246     0.42700
N1489       N  0.71028185  0.94523425  0.43038386     0.01500
N1490       N  0.77944245  0.94479207  0.34212637    -0.25300
N1491       N  0.70049587  0.05996920  0.37260344    -0.25800
N1492       N  0.79956352  0.94495947  0.36074952     0.01200
H1493       H  0.77756994  0.90702072  0.30292316     0.07100
H1494       H  0.83647562  0.88738413  0.40238387     0.07100
N1495       N  0.73166320  0.94543404  0.44744941    -0.25900
N1496       N  0.80853110  0.06300465  0.41731945    -0.25500
N1497       N  0.71394243  0.94524121  0.35007589     0.01500
C1498       C  0.70673616  0.13972601  0.44983036     0.42900
C1499       C  0.78623120  0.09089441  0.32081241    -0.06700
N1500       N  0.80882414  0.94634724  0.41911083    -0.25500
H1501       H  0.83696980  0.11828927  0.39890698     0.07100
N1502       N  0.69487966  0.10869091  0.43081854    -0.46700
H1503       H  0.77505256  0.09612516  0.30192289     0.07100
C1504       C  0.81544710  0.89092425  0.33145285     0.42800
C1505       C  0.67684247  0.08748176  0.37051983    -0.06200
Co1506     Co  0.74625555  0.00122404  0.34463366     0.73800
N1507       N  0.82008467  0.08958878  0.35282748    -0.46400
C1508       C  0.70978583  0.86720417  0.44729930     0.43000
N1509       N  0.70013006  0.91731544  0.33143878    -0.46400
Co1510     Co  0.80434069  0.00299595  0.38924309     0.73900
C1511       C  0.82332996  0.90084894  0.41860480    -0.06700
C1512       C  0.73067762  0.10977601  0.46083021    -0.06300
N1513       N  0.69987658  0.94708630  0.37286957    -0.25800
N1514       N  0.79357667  0.11306492  0.45007696    -0.46600
H1515       H  0.74840548  0.88440291  0.47377375     0.07100
C1516       C  0.78798151  0.91202068  0.32220895    -0.06700
Cl1517     Cl  0.75447212  0.00348565  0.39473551    -0.49700
C1518       C  0.81362995  0.11259312  0.32942692     0.42800
H1519       H  0.66032044  0.91592332  0.38545620     0.07000
N1520       N  0.82084878  0.91400542  0.35503328    -0.46400
C1521       C  0.55489705  0.37517096  0.18117118     0.42700
N1522       N  0.53388367  0.38197075  0.21965549     0.01500
C1523       C  0.53807706  0.15467307  0.29831442    -0.06300
H1524       H  0.52593395  0.10716022  0.21564860     0.07000
C1525       C  0.91938478  0.24252461  0.21597889    -0.06700
Co1526     Co  0.54847488  0.28774868  0.25345531     0.74200
N1527       N  0.52491892  0.18937893  0.22805219    -0.25900
Co1528     Co  0.99253163  0.19856069  0.25669183     0.74100
C1529       C  0.91818755  0.18638682  0.21095770     0.42800
N1530       N  0.95125162  0.36524885  0.22456298     0.01200
N1531       N  0.95854777  0.20537436  0.22883572     0.01300
N1532       N  0.56843538  0.22229721  0.29782515    -0.46700
H1533       H  0.57990805  0.30316138  0.19541772     0.07000
N1534       N  0.54412641  0.22678755  0.22612920     0.01600
N1535       N  0.96044007  0.20916968  0.28551290     0.01300
C1536       C  0.92156633  0.19458529  0.30673643     0.42900
N1537       N  0.97225157  0.39857815  0.22274684    -0.25300
C1538       C  0.56953816  0.34713018  0.30360596    -0.06200
N1539       N  0.53504753  0.40294491  0.19497754    -0.46400
N1540       N  0.94541533  0.17139404  0.29729855    -0.46600
C1541       C  0.56172672  0.39461412  0.31798704     0.42700
N1542       N  0.54543456  0.23389991  0.28428292     0.01500
N1543       N  0.97659323  0.40072925  0.28426924    -0.25300
N1544       N  0.55088975  0.34106476  0.22207230    -0.25800
N1545       N  0.95540702  0.36745585  0.28503239     0.01200
H1546       H  0.99566548  0.44862054  0.31577667     0.07100
H1547       H  0.90560659  0.27735430  0.29757670     0.07100
N1548       N  0.52657431  0.19561835  0.28447147    -0.25900
N1549       N  0.94402579  0.25014526  0.22817305    -0.25500
N1550       N  0.53784851  0.38988129  0.28070406     0.01500
C1551       C  0.56227537  0.16278526  0.20378721     0.42900
C1552       C  0.96973183  0.42393113  0.19886850    -0.06700
N1553       N  0.94640912  0.25426424  0.28517592    -0.25500
H1554       H  0.90239380  0.27092380  0.21592765     0.07100
N1555       N  0.56594281  0.21257748  0.21181515    -0.46700
H1556       H  0.98483509  0.45142891  0.19090725     0.07100
C1557       C  0.95834786  0.39571428  0.32618045     0.42800
C1558       C  0.56557211  0.33517984  0.19951235    -0.06200
Co1559     Co  0.00512001  0.39551011  0.25164170     0.73800
N1560       N  0.93488618  0.36487084  0.20278820    -0.46400
C1561       C  0.56631890  0.17287889  0.30673037     0.43000
N1562       N  0.54181205  0.41908123  0.30268314    -0.46400
Co1563     Co  0.94938103  0.31042074  0.25558539     0.73900
C1564       C  0.92279698  0.24936613  0.29884903    -0.06700
C1565       C  0.53497355  0.14626439  0.21497236    -0.06300
N1566       N  0.55354571  0.34715866  0.28122831    -0.25800
N1567       N  0.94323838  0.16557964  0.21919381    -0.46600
H1568       H  0.52971658  0.11501687  0.29878686     0.07100
C1569       C  0.97922500  0.42236820  0.30918582    -0.06700
Cl1570     Cl  0.99881142  0.29734186  0.25410431    -0.49700
C1571       C  0.94493069  0.40071478  0.18524376     0.42800
H1572       H  0.58351280  0.31585159  0.31012726     0.07000
N1573       N  0.94439848  0.36325917  0.30931502    -0.46400
C1574       C  0.56783981  0.82763082  0.20528327     0.42700
N1575       N  0.53235478  0.80471162  0.22909705     0.01500
C1576       C  0.53109461  0.58081300  0.30798856    -0.06300
H1577       H  0.51631767  0.55624732  0.19178197     0.07000
C1578       C  0.93483633  0.65404691  0.20183622    -0.06700
Co1579     Co  0.54915271  0.70239368  0.25537249     0.74200
N1580       N  0.52925120  0.61030669  0.22330374    -0.25900
Co1581     Co  0.99887243  0.60642037  0.25370901     0.74100
C1582       C  0.94761206  0.61440420  0.18502758     0.42800
N1583       N  0.94800656  0.76670215  0.22886427     0.01200
N1584       N  0.96789802  0.61282462  0.22365035     0.01300
N1585       N  0.56295601  0.64575629  0.30736770    -0.46700
H1586       H  0.59038736  0.74968376  0.21260258     0.07000
N1587       N  0.54790018  0.64852550  0.22376838     0.01600
N1588       N  0.96819529  0.60689335  0.28382785     0.01300
C1589       C  0.94769357  0.59994429  0.32218074     0.42900
N1590       N  0.96586458  0.80671634  0.22961198    -0.25300
C1591       C  0.57201556  0.76475641  0.30124744    -0.06200
N1592       N  0.54344888  0.84569334  0.21609906    -0.46400
N1593       N  0.96809622  0.57928108  0.30656947    -0.46600
C1594       C  0.56904548  0.81726612  0.31220840     0.42700
N1595       N  0.54911534  0.64296373  0.28417475     0.01500
N1596       N  0.96626567  0.80179382  0.28612967    -0.25300
N1597       N  0.54937780  0.76331306  0.22842683    -0.25800
N1598       N  0.94959165  0.76015736  0.28634297     0.01200
H1599       H  0.95933915  0.88158655  0.29964375     0.07100
H1600       H  0.92011302  0.67201049  0.31401928     0.07100
N1601       N  0.52983980  0.60598650  0.28406188    -0.25900
N1602       N  0.94920993  0.65123808  0.22504798    -0.25500
N1603       N  0.53304408  0.79944032  0.28667899     0.01500
C1604       C  0.55063806  0.61738079  0.18341441     0.42900
C1605       C  0.95376431  0.84740943  0.21601401    -0.06700
N1606       N  0.94961450  0.64542138  0.28419995    -0.25500
H1607       H  0.91939134  0.68361609  0.19637642     0.07100
N1608       N  0.56073070  0.65453165  0.20038189    -0.46700
H1609       H  0.96144117  0.88755421  0.21567182     0.07100
C1610       C  0.92574814  0.81766303  0.30854416     0.42800
C1611       C  0.57164125  0.77387714  0.21360426    -0.06200
Co1612     Co  0.49956000  0.80471907  0.25790251     0.73800
N1613       N  0.92459052  0.77748266  0.21558266    -0.46400
C1614       C  0.55275465  0.60847856  0.32399924     0.43000
N1615       N  0.54461266  0.83746323  0.30174402    -0.46400
Co1616     Co  0.94906800  0.70519694  0.25608269     0.73900
C1617       C  0.93537151  0.64342870  0.30724915    -0.06700
C1618       C  0.53030338  0.58678183  0.19895800    -0.06300
N1619       N  0.54981130  0.75781624  0.28543372    -0.25800
N1620       N  0.96785237  0.58990753  0.19961513    -0.46600
H1621       H  0.51660061  0.55082134  0.31414700     0.07100
C1622       C  0.95274776  0.84084959  0.29951240    -0.06700
Cl1623     Cl  0.99914222  0.70507067  0.25574303    -0.49700
C1624       C  0.92638787  0.82699303  0.20656641     0.42800
H1625       H  0.59050584  0.73977567  0.30098668     0.07000
N1626       N  0.92623782  0.76800067  0.29955434    -0.46400
C1627       C  0.87711405  0.80482356  0.32368395    -0.12100
C1628       C  0.89744398  0.84050189  0.31414466     0.04900
C1629       C  0.88832230  0.89094792  0.30553901    -0.07400
C1630       C  0.85954982  0.90439287  0.30692081    -0.08100
C1631       C  0.83955376  0.86865077  0.31697055    -0.02700
C1632       C  0.84856649  0.81793615  0.32468963     0.04200
N1633       N  0.82898021  0.78019713  0.33497357     0.66700
H1634       H  0.88339633  0.76543288  0.32993442     0.15600
H1635       H  0.85318848  0.94466651  0.30249221     0.15300
N1636       N  0.90790362  0.92988976  0.29682279     0.74400
O1637       O  0.83481525  0.75409210  0.35598139    -0.39100
O1638       O  0.80680177  0.76988928  0.32185808    -0.39000
O1639       O  0.90457571  0.95162263  0.27413325    -0.39700
O1640       O  0.92448681  0.95036135  0.31381844    -0.39800
C1641       C  0.61417828  0.81163320  0.33619367    -0.12100
C1642       C  0.59442002  0.84479232  0.32322334     0.04900
C1643       C  0.60269516  0.89702725  0.31655110    -0.07400
C1644       C  0.63132125  0.91146668  0.32009297    -0.08100
C1645       C  0.65111551  0.87639634  0.33164758    -0.02700
C1646       C  0.64201964  0.82661626  0.34011851     0.04200
N1647       N  0.66083881  0.79125571  0.35374480     0.66700
H1648       H  0.60816352  0.77241380  0.34269907     0.15600
H1649       H  0.63783080  0.95146028  0.31565054     0.15300
N1650       N  0.58252066  0.93651214  0.30820118     0.74400
O1651       O  0.66068852  0.78857754  0.37910442    -0.39100
O1652       O  0.67485098  0.75809734  0.34043647    -0.39000
O1653       O  0.55796549  0.93575820  0.31755249    -0.39700
O1654       O  0.59066789  0.97800143  0.29654711    -0.39800
C1655       C  0.87390822  0.20099814  0.32545766    -0.12100
C1656       C  0.89364496  0.16987108  0.31163336     0.04900
C1657       C  0.88403224  0.12344201  0.29862622    -0.07400
C1658       C  0.85549705  0.10880290  0.30066660    -0.08100
C1659       C  0.83627716  0.13974554  0.31520780    -0.02700
C1660       C  0.84560436  0.18721810  0.32670322     0.04200
N1661       N  0.82665335  0.22023249  0.34134375     0.66700
H1662       H  0.88030985  0.23740666  0.33500551     0.15600
H1663       H  0.84887056  0.07084303  0.29280752     0.15300
N1664       N  0.90270507  0.09053960  0.28359553     0.74400
O1665       O  0.80819570  0.24676582  0.32883566    -0.39100
O1666       O  0.82995089  0.22664329  0.36637202    -0.39000
O1667       O  0.92377673  0.06984297  0.29514045    -0.39700
O1668       O  0.89551796  0.07467280  0.26044445    -0.39800
C1669       C  0.59387464  0.10563092  0.33197688    -0.12100
C1670       C  0.59248811  0.14206835  0.31102001     0.04900
C1671       C  0.61768185  0.15595021  0.29742967    -0.07400
C1672       C  0.64363147  0.13689875  0.30674305    -0.08100
C1673       C  0.64530481  0.10436731  0.32925853    -0.02700
C1674       C  0.61989528  0.08622658  0.34119546     0.04200
N1675       N  0.61991617  0.04904410  0.36297986     0.66700
H1676       H  0.57477737  0.09422032  0.34214371     0.15600
H1677       H  0.66277359  0.14990565  0.29715442     0.15300
N1678       N  0.61747047  0.19085540  0.27467217     0.74400
O1679       O  0.60485816  0.05720598  0.38336216    -0.39100
O1680       O  0.63294004  0.00581092  0.36088438    -0.39000
O1681       O  0.63594142  0.22625300  0.27249898    -0.39700
O1682       O  0.60039239  0.18332738  0.25552265    -0.39800
C1683       C  0.86589117  0.85134254  0.15973756    -0.12100
C1684       C  0.84543942  0.87441307  0.17644762     0.04900
C1685       C  0.85308208  0.88552514  0.20341697    -0.07400
C1686       C  0.88073998  0.87455425  0.21264395    -0.08100
C1687       C  0.90115918  0.85331001  0.19527330    -0.02700
C1688       C  0.89330382  0.84116235  0.16870756     0.04200
N1689       N  0.91280439  0.81632990  0.15084214     0.66700
H1690       H  0.86092581  0.84220494  0.13902558     0.15600
H1691       H  0.88597764  0.88070536  0.23369260     0.15300
N1692       N  0.83320805  0.90766224  0.22161347     0.74400
O1693       O  0.90641216  0.77362404  0.13922558    -0.39100
O1694       O  0.93656250  0.83676572  0.14683277    -0.39000
O1695       O  0.81926861  0.87756054  0.23666280    -0.39700
O1696       O  0.83303262  0.95679012  0.22587127    -0.39800
C1697       C  0.64148381  0.87970402  0.20294441    -0.12100
C1698       C  0.64733636  0.87161778  0.17564353     0.04900
C1699       C  0.62496226  0.85615325  0.15812265    -0.07400
C1700       C  0.59765596  0.85113705  0.16791523    -0.08100
C1701       C  0.59193642  0.85764930  0.19514240    -0.02700
C1702       C  0.61412418  0.87203651  0.21276539     0.04200
N1703       N  0.60912114  0.87812191  0.24083746     0.66700
H1704       H  0.65796793  0.89266242  0.21659572     0.15600
H1705       H  0.58120067  0.83704559  0.15450053     0.15300
N1706       N  0.62968971  0.84354898  0.13036158     0.74400
O1707       O  0.61594185  0.84176619  0.25704608    -0.39100
O1708       O  0.60179062  0.92264592  0.24972330    -0.39000
O1709       O  0.64912527  0.81194639  0.12406520    -0.39700
O1710       O  0.61217667  0.85817355  0.11256819    -0.39800
C1711       C  0.89262545  0.11043392  0.19132626    -0.12100
C1712       C  0.89172117  0.15624409  0.20690189     0.04900
C1713       C  0.86512839  0.17481816  0.21610710    -0.07400
C1714       C  0.84030710  0.15124291  0.20649167    -0.08100
C1715       C  0.84133202  0.10865300  0.18879919    -0.02700
C1716       C  0.86781438  0.08603247  0.18252473     0.04200
N1717       N  0.86984600  0.03902836  0.16660370     0.66700
H1718       H  0.91272434  0.09464518  0.18505174     0.15600
H1719       H  0.82008908  0.16774034  0.21190405     0.15300
N1720       N  0.86274062  0.21702311  0.23524501     0.74400
O1721       O  0.88660289  0.03688701  0.14708511    -0.39100
O1722       O  0.85702363  0.99789151  0.17370729    -0.39000
O1723       O  0.84289486  0.25008910  0.23324710    -0.39700
O1724       O  0.87793311  0.21700008  0.25619522    -0.39800
C1725       C  0.62925942  0.14534469  0.16736444    -0.12100
C1726       C  0.64517327  0.11202631  0.18431920     0.04900
C1727       C  0.63168034  0.08857351  0.20652920    -0.07400
C1728       C  0.60304890  0.10047985  0.21168301    -0.08100
C1729       C  0.58737418  0.13377141  0.19425066    -0.02700
C1730       C  0.60081184  0.15489049  0.17163832     0.04200
N1731       N  0.58578929  0.18803297  0.15311639     0.66700
H1732       H  0.63881291  0.16276058  0.14972777     0.15600
H1733       H  0.59337886  0.08523172  0.22973774     0.15300
N1734       N  0.64639882  0.05198733  0.22348472     0.74400
O1735       O  0.59047878  0.23699139  0.15281754    -0.39100
O1736       O  0.57152151  0.16747419  0.13433308    -0.39000
O1737       O  0.65348743  0.06511021  0.24709572    -0.39700
O1738       O  0.65136524  0.00577487  0.21525704    -0.39800
C1739       C  0.81792031  0.73134888  0.06044124    -0.12100
C1740       C  0.80136384  0.70694736  0.04036763     0.04900
C1741       C  0.78604022  0.74048794  0.02263653    -0.07400
C1742       C  0.78795710  0.79571187  0.02491821    -0.08100
C1743       C  0.80265551  0.81987904  0.04617222    -0.02700
C1744       C  0.81833831  0.78673260  0.06373146     0.04200
N1745       N  0.83375759  0.80811352  0.08590865     0.66700
H1746       H  0.83014020  0.70724362  0.07430873     0.15600
H1747       H  0.77618597  0.81973614  0.01077196     0.15300
N1748       N  0.76532875  0.71989078  0.00470537     0.74400
O1749       O  0.82576680  0.79852815  0.10954417    -0.39100
O1750       O  0.85773620  0.82778849  0.08214098    -0.39000
O1751       O  0.74370989  0.69967259  0.01478042    -0.39700
O1752       O  0.76422442  0.73489818  0.48042195    -0.39800
C1753       C  0.79807246  0.28057093  0.02677147    -0.12100
C1754       C  0.80440372  0.31467074  0.04823641     0.04900
C1755       C  0.81282589  0.29155764  0.07314724    -0.07400
C1756       C  0.81178147  0.23600518  0.07665500    -0.08100
C1757       C  0.80376326  0.20249365  0.05534864    -0.02700
C1758       C  0.79899746  0.22547524  0.02987719     0.04200
N1759       N  0.79666840  0.19303150  0.00652677     0.66700
H1760       H  0.79395385  0.29652289  0.00690997     0.15600
H1761       H  0.81652417  0.21929030  0.09627533     0.15300
N1762       N  0.82259231  0.32359493  0.09503555     0.74400
O1763       O  0.77615202  0.19896347  0.99062515    -0.39100
O1764       O  0.81562937  0.15971008  0.00126419    -0.39000
O1765       O  0.80629740  0.35624833  0.10611473    -0.39700
O1766       O  0.84711656  0.31697876  0.10438987    -0.39800
C1767       C  0.79407440  0.72982872  0.42346457    -0.12100
C1768       C  0.81137311  0.70068187  0.44099674     0.04900
C1769       C  0.83017831  0.72793105  0.45835052    -0.07400
C1770       C  0.82988048  0.78346700  0.45902095    -0.08100
C1771       C  0.81198826  0.81263192  0.44203388    -0.02700
C1772       C  0.79441080  0.78543503  0.42345168     0.04200
N1773       N  0.77784139  0.81331564  0.40363280     0.66700
H1774       H  0.78061707  0.70913586  0.40931024     0.15600
H1775       H  0.84423322  0.80401044  0.47244903     0.15300
N1776       N  0.85080202  0.70008463  0.47421268     0.74400
O1777       O  0.77654058  0.79657311  0.37971702    -0.39100
O1778       O  0.76340101  0.85312633  0.41007719    -0.39000
O1779       O  0.87660288  0.71313152  0.97284116    -0.39700
O1780       O  0.84384779  0.66391120  0.98997579    -0.39800
C1781       C  0.79013864  0.23037676  0.43866363    -0.12100
C1782       C  0.81486020  0.20041652  0.43663520     0.04900
C1783       C  0.84044807  0.22730995  0.43252794    -0.07400
C1784       C  0.84104708  0.28294419  0.43257587    -0.08100
C1785       C  0.81651441  0.31286412  0.43700361    -0.02700
C1786       C  0.79092431  0.28570709  0.43953399     0.04200
N1787       N  0.76548005  0.31388000  0.44362260     0.66700
H1788       H  0.77000026  0.21069081  0.43999397     0.15600
H1789       H  0.86106861  0.30252600  0.43021788     0.15300
N1790       N  0.86609958  0.19880730  0.42874494     0.74400
O1791       O  0.75256901  0.33379759  0.92420071    -0.39100
O1792       O  0.75900824  0.32726925  0.46716873    -0.39000
O1793       O  0.87917839  0.20313997  0.40687338    -0.39700
O1794       O  0.87754976  0.17517026  0.44838341    -0.39800
C1795       C  0.93404302  0.55552729  0.39352215    -0.12100
C1796       C  0.94456336  0.59850096  0.40871388     0.04900
C1797       C  0.95893681  0.63880534  0.39516962    -0.07400
C1798       C  0.96071261  0.63753274  0.36689021    -0.08100
C1799       C  0.94776433  0.59701404  0.35182385    -0.02700
C1800       C  0.93378781  0.55608029  0.36529174     0.04200
N1801       N  0.91643773  0.51888591  0.35088096     0.66700
H1802       H  0.92226802  0.52497355  0.40367308     0.15600
H1803       H  0.97148970  0.66915617  0.35655707     0.15300
N1804       N  0.97078658  0.68210853  0.40975591     0.74400
O1805       O  0.91198604  0.47373986  0.36069811    -0.39100
O1806       O  0.90113489  0.53446530  0.33149978    -0.39000
O1807       O  0.99233383  0.67478662  0.42433566    -0.39700
O1808       O  0.96213032  0.72852187  0.40536204    -0.39800
C1809       C  0.92028105  0.57738411  0.14842509    -0.12100
C1810       C  0.94262316  0.60908671  0.15602219     0.04900
C1811       C  0.95644212  0.64006126  0.13644431    -0.07400
C1812       C  0.94735124  0.63767899  0.10930806    -0.08100
C1813       C  0.92386414  0.60750534  0.10179734    -0.02700
C1814       C  0.91036988  0.57682827  0.12203661     0.04200
N1815       N  0.88634805  0.54467008  0.11677751     0.66700
H1816       H  0.90946390  0.55423411  0.16349896     0.15600
H1817       H  0.95762745  0.66174026  0.09430854     0.15300
N1818       N  0.97875964  0.67548090  0.14376364     0.74400
O1819       O  0.89017098  0.49599243  0.11329383    -0.39100
O1820       O  0.86276715  0.55993215  0.12530412    -0.39000
O1821       O  0.99898356  0.68235522  0.12791593    -0.39700
O1822       O  0.97624390  0.70583937  0.16375609    -0.39800
C1823       C  0.97421207  0.42251150  0.37331804    -0.12100
C1824       C  0.95721815  0.39077920  0.35651094     0.04900
C1825       C  0.93913265  0.35433844  0.36934544    -0.07400
C1826       C  0.93579533  0.35538346  0.39730817    -0.08100
C1827       C  0.94928685  0.39296452  0.41344875    -0.02700
C1828       C  0.97023521  0.42452313  0.40157015     0.04200
N1829       N  0.98700318  0.45968246  0.41755243     0.66700
H1830       H  0.98950159  0.44767306  0.36432939     0.15600
H1831       H  0.91981756  0.33042538  0.40608668     0.15300
N1832       N  0.92247180  0.31757717  0.35450522     0.74400
O1833       O  0.01343124  0.45571664  0.41734180    -0.39100
O1834       O  0.97574288  0.49686160  0.43048376    -0.39000
O1835       O  0.92583358  0.26889644  0.35905599    -0.39700
O1836       O  0.89981125  0.33334495  0.34372899    -0.39800
C1837       C  0.94811662  0.44136961  0.13886420    -0.12100
C1838       C  0.93771743  0.40113242  0.15556849     0.04900
C1839       C  0.92291952  0.35910280  0.14300215    -0.07400
C1840       C  0.91811646  0.35929106  0.11503140    -0.08100
C1841       C  0.92922757  0.39860372  0.09837579    -0.02700
C1842       C  0.94612510  0.43812278  0.11043021     0.04200
N1843       N  0.96204275  0.47380824  0.09414512     0.66700
H1844       H  0.95909119  0.47425552  0.14797685     0.15600
H1845       H  0.90499764  0.32878672  0.10624255     0.15300
N1846       N  0.91270552  0.31535632  0.15812712     0.74400
O1847       O  0.96675254  0.52019394  0.10219823    -0.39100
O1848       O  0.97653604  0.45562416  0.07509991    -0.39000
O1849       O  0.88807571  0.31682008  0.16728774    -0.39700
O1850       O  0.92555220  0.27173678  0.15697903    -0.39800
C1851       C  0.69821849  0.72951224  0.47501609    -0.12100
C1852       C  0.70080124  0.69736556  0.45215080     0.04900
C1853       C  0.70497697  0.72184734  0.42688564    -0.07400
C1854       C  0.70746343  0.77739691  0.42528637    -0.08100
C1855       C  0.70573732  0.80897610  0.44848850    -0.02700
C1856       C  0.70095573  0.78450069  0.47324932     0.04200
N1857       N  0.70074354  0.81585014  0.99685548     0.66700
H1858       H  0.69427576  0.71177679  0.49447173     0.15600
H1859       H  0.71130504  0.79580247  0.40597417     0.15300
N1860       N  0.70773260  0.69090566  0.40293950     0.74400
O1861       O  0.68251337  0.85192141  0.99899184    -0.39100
O1862       O  0.72308501  0.81858075  0.01059148    -0.39000
O1863       O  0.68742186  0.66318579  0.39466323    -0.39700
O1864       O  0.72903334  0.69631484  0.38827700    -0.39800
C1865       C  0.70562781  0.27816049  0.47972985    -0.12100
C1866       C  0.69771104  0.30933392  0.45755122     0.04900
C1867       C  0.68919246  0.28353487  0.43356814    -0.07400
C1868       C  0.69126197  0.22812584  0.43150372    -0.08100
C1869       C  0.70101502  0.19741165  0.45329117    -0.02700
C1870       C  0.70687379  0.22291244  0.47793533     0.04200
N1871       N  0.71235380  0.19306076  0.00138356     0.66700
H1872       H  0.71039908  0.29676273  0.49885326     0.15600
H1873       H  0.68594954  0.20928785  0.41254513     0.15300
N1874       N  0.67889856  0.31297456  0.41096587     0.74400
O1875       O  0.72829718  0.21090218  0.01966293    -0.39100
O1876       O  0.69826380  0.15180604  0.00559708    -0.39000
O1877       O  0.69584263  0.32992948  0.39363364    -0.39700
O1878       O  0.65281650  0.31477296  0.40615673    -0.39800
C1879       C  0.67097706  0.72968995  0.05054158    -0.12100
C1880       C  0.69556771  0.70339122  0.05909995     0.04900
C1881       C  0.71870328  0.73371570  0.06862456    -0.07400
C1882       C  0.71671948  0.78947617  0.06786101    -0.08100
C1883       C  0.69217184  0.81544485  0.05889387    -0.02700
C1884       C  0.66879065  0.78494126  0.05090550     0.04200
N1885       N  0.64300851  0.80930048  0.04216746     0.66700
H1886       H  0.65302269  0.70686401  0.04373584     0.15600
H1887       H  0.73447701  0.81313198  0.07435163     0.15300
N1888       N  0.74375601  0.70953212  0.07989302     0.74400
O1889       O  0.62990691  0.83969524  0.05779813    -0.39100
O1890       O  0.63114011  0.79413865  0.02068701    -0.39000
O1891       O  0.74887384  0.66097933  0.07684743    -0.39700
O1892       O  0.76091147  0.73687731  0.09349895    -0.39800
C1893       C  0.67622951  0.29210768  0.05120107    -0.12100
C1894       C  0.69829408  0.31834995  0.06463917     0.04900
C1895       C  0.71778323  0.28833158  0.08024278    -0.07400
C1896       C  0.71542295  0.23262837  0.08032376    -0.08100
C1897       C  0.69327628  0.20678668  0.06692403    -0.02700
C1898       C  0.67307012  0.23707823  0.05287849     0.04200
N1899       N  0.64927054  0.21251889  0.04024979     0.66700
H1900       H  0.66074679  0.31492009  0.03996277     0.15600
H1901       H  0.73071208  0.20889970  0.09127025     0.15300
N1902       N  0.73935831  0.31290858  0.09661381     0.74400
O1903       O  0.64310362  0.22239250  0.51585583    -0.39100
O1904       O  0.63274468  0.18494943  0.05411149    -0.39000
O1905       O  0.73852419  0.36160696  0.10199368    -0.39700
O1906       O  0.75776027  0.28479189  0.10828940    -0.39800
C1907       C  0.54972969  0.58317064  0.40071235    -0.12100
C1908       C  0.56961319  0.61953642  0.41023505     0.04900
C1909       C  0.58145800  0.65512201  0.39169763    -0.07400
C1910       C  0.57564977  0.65025974  0.36408611    -0.08100
C1911       C  0.55727222  0.61135990  0.35401420    -0.02700
C1912       C  0.54336214  0.57906231  0.37298784     0.04200
N1913       N  0.52339774  0.54059411  0.36467499     0.66700
H1914       H  0.54071948  0.55491290  0.41452945     0.15600
H1915       H  0.58597717  0.67716687  0.35044014     0.15300
N1916       N  0.60068195  0.69493021  0.40060012     0.74400
O1917       O  0.53166340  0.49920396  0.35312394    -0.39100
O1918       O  0.49885095  0.54258623  0.37385203    -0.39000
O1919       O  0.62559578  0.69492201  0.39214602    -0.39700
O1920       O  0.59165200  0.73426385  0.41353387    -0.39800
C1921       C  0.56739525  0.66174522  0.11133017    -0.12100
C1922       C  0.56241536  0.61541138  0.09662633     0.04900
C1923       C  0.55190121  0.57111396  0.11050458    -0.07400
C1924       C  0.54738933  0.57316456  0.13840989    -0.08100
C1925       C  0.55366594  0.61858384  0.15340228    -0.02700
C1926       C  0.56313907  0.66377143  0.13932190     0.04200
N1927       N  0.56900586  0.71197690  0.15307566     0.66700
H1928       H  0.57645596  0.69564335  0.10133159     0.15600
H1929       H  0.54083513  0.53765752  0.14868998     0.15300
N1930       N  0.55117424  0.52092538  0.09771175     0.74400
O1931       O  0.59420346  0.72503332  0.15750651    -0.39100
O1932       O  0.54969697  0.74582804  0.15564776    -0.39000
O1933       O  0.57245275  0.49135810  0.09954052    -0.39700
O1934       O  0.53134219  0.50936197  0.08175912    -0.39800
C1935       C  0.55189351  0.36717026  0.36543530    -0.12100
C1936       C  0.56536706  0.40179090  0.34749598     0.04900
C1937       C  0.58294965  0.44149438  0.35801957    -0.07400
C1938       C  0.58570994  0.44715066  0.38606253    -0.08100
C1939       C  0.57416981  0.41002874  0.40412513    -0.02700
C1940       C  0.55674542  0.37016065  0.39348109     0.04200
N1941       N  0.54542710  0.33042046  0.41061513     0.66700
H1942       H  0.53858138  0.33606884  0.35750861     0.15600
H1943       H  0.59930370  0.47806710  0.39373472     0.15300
N1944       N  0.59927329  0.47441797  0.34058996     0.74400
O1945       O  0.01958681  0.33074335  0.41594244    -0.39100
O1946       O  0.56013793  0.29051183  0.41669900    -0.39000
O1947       O  0.60308352  0.52243659  0.34632611    -0.39700
O1948       O  0.61347662  0.45384057  0.32196473    -0.39800
C1949       C  0.54714953  0.38738838  0.10393213    -0.12100
C1950       C  0.57375982  0.37063697  0.09549594     0.04900
C1951       C  0.59266554  0.34993414  0.11521200    -0.07400
C1952       C  0.58634538  0.35441985  0.14269275    -0.08100
C1953       C  0.56059811  0.37485796  0.15143211    -0.02700
C1954       C  0.54058448  0.38915219  0.13157285     0.04200
N1955       N  0.51342011  0.40568355  0.13921824     0.66700
H1956       H  0.53218447  0.40277956  0.08931517     0.15600
H1957       H  0.60182042  0.34150244  0.15742907     0.15300
N1958       N  0.61893195  0.32616622  0.10754141     0.74400
O1959       O  0.50891666  0.45421525  0.14287964    -0.39100
O1960       O  0.99654383  0.37177274  0.14816973    -0.39000
O1961       O  0.63981528  0.32662586  0.12345403    -0.39700
O1962       O  0.62050705  0.30012948  0.08593811    -0.39800
C1963       C  0.69820312  0.37636395  0.56361776     0.42700
N1964       N  0.69517377  0.44919785  0.54074370     0.01500
C1965       C  0.56765966  0.58544266  0.54494679    -0.06300
H1966       H  0.55247339  0.40477568  0.53617016     0.07000
C1967       C  0.61638945  0.41802553  0.93444260    -0.06700
Co1968     Co  0.64275348  0.50774109  0.55441957     0.74200
N1969       N  0.59231071  0.44632824  0.53439508    -0.25900
Co1970     Co  0.59207807  0.50322005  0.50232142     0.74100
C1971       C  0.58664449  0.40758720  0.93188856     0.42800
N1972       N  0.67991956  0.44653006  0.96153294     0.01200
N1973       N  0.59542023  0.44840715  0.96982624     0.01300
N1974       N  0.60434686  0.59090088  0.57335656    -0.46700
H1975       H  0.65957748  0.39768062  0.58815615     0.07000
N1976       N  0.61325715  0.44833063  0.55210614     0.01600
N1977       N  0.59467471  0.56052564  0.97077888     0.01300
C1978       C  0.58479042  0.60954627  0.93601115     0.42900
N1979       N  0.69836916  0.44669638  0.98145232    -0.25300
C1980       C  0.67175962  0.61298723  0.56939409    -0.06200
N1981       N  0.70959610  0.40428806  0.54313587    -0.46400
N1982       N  0.57385857  0.58699861  0.95856664    -0.46600
C1983       C  0.69501990  0.64405968  0.55915818     0.42700
N1984       N  0.61073453  0.56283551  0.55193032     0.01500
N1985       N  0.69810277  0.56476234  0.97977146    -0.25300
N1986       N  0.67417185  0.45122771  0.55764389    -0.25800
N1987       N  0.67921575  0.56445806  0.96030725     0.01200
H1988       H  0.72849207  0.62179629  0.99185232     0.07100
H1989       H  0.62775105  0.59396556  0.91776678     0.07100
N1990       N  0.58978332  0.55912039  0.53433872    -0.27700
N1991       N  0.61933574  0.44662715  0.95666017    -0.25500
N1992       N  0.69381981  0.56805551  0.53912030     0.01500
C1993       C  0.58583970  0.39072208  0.56994699     0.42900
C1994       C  0.71144191  0.39954283  0.98173688    -0.06700
N1995       N  0.61766067  0.56098216  0.95602167    -0.25500
H1996       H  0.63150557  0.41805549  0.91830780     0.07100
N1997       N  0.61018163  0.41628303  0.57260295    -0.46700
H1998       H  0.72647272  0.38651300  0.99673631     0.07100
C1999       C  0.70026166  0.63921223  0.95540836     0.42800
C2000       C  0.67494720  0.40816624  0.57330978    -0.06200
Co2001     Co  0.69763686  0.50744160  0.01018053     0.73800
N2002       N  0.67892373  0.40074568  0.94859211    -0.46400
C2003       C  0.57767252  0.60734521  0.57101736     0.43000
N2004       N  0.70743466  0.61383710  0.54005442    -0.46400
Co2005     Co  0.64933685  0.50482485  0.95857626     0.73900
C2006       C  0.61377068  0.59225227  0.93478830    -0.06700
C2007       C  0.57325661  0.41164882  0.54443540    -0.06300
N2008       N  0.67239623  0.56747170  0.55567907    -0.25800
N2009       N  0.57475660  0.42801341  0.95464882    -0.46600
H2010       H  0.54637656  0.58418899  0.53711856     0.07100
C2011       C  0.71274492  0.60979278  0.97800687    -0.06700
Cl2012     Cl  0.64524381  0.50570342  0.50642880    -0.49700
C2013       C  0.69815150  0.36856369  0.96012492     0.42800
H2014       H  0.65551952  0.62507015  0.58315682     0.07000
N2015       N  0.67938177  0.60841062  0.94565983    -0.46400
C2016       C  0.91521019  0.40662039  0.57140127     0.42700
N2017       N  0.90746746  0.45510548  0.53593552     0.01500
C2018       C  0.78988424  0.61400764  0.51606816    -0.06300
H2019       H  0.77873405  0.38698146  0.50393959     0.07000
C2020       C  0.84160987  0.40510577  0.93137842    -0.06700
Co2021     Co  0.85185141  0.51147213  0.54389208     0.74200
N2022       N  0.80591780  0.44848399  0.51889245    -0.25900
Co2023     Co  0.80859937  0.50716012  0.98890780     0.74100
C2024       C  0.81842411  0.37176781  0.93983622     0.42800
N2025       N  0.89946123  0.45682795  0.95347474     0.01200
N2026       N  0.81600875  0.44751081  0.96004596     0.01300
N2027       N  0.82044549  0.61628790  0.55067472    -0.46700
H2028       H  0.87044069  0.41923564  0.58602291     0.07000
N2029       N  0.82269803  0.45083109  0.54007149     0.01600
N2030       N  0.81287049  0.56622389  0.95931430     0.01300
C2031       C  0.81192300  0.64228606  0.93919703     0.42900
N2032       N  0.91831082  0.45656081  0.97320580    -0.25300
C2033       C  0.88275417  0.60160862  0.56858749    -0.06200
N2034       N  0.92738142  0.42871365  0.54940313    -0.46400
N2035       N  0.79832896  0.61090985  0.95689204    -0.46600
C2036       C  0.91237056  0.60975394  0.57370356     0.42700
N2037       N  0.82102291  0.56967227  0.53838616     0.01500
N2038       N  0.91685597  0.56684392  0.97309568    -0.25300
N2039       N  0.88348286  0.45485026  0.54911511    -0.25800
N2040       N  0.89605078  0.57223322  0.95548655     0.01200
H2041       H  0.96126031  0.58165565  0.96879735     0.07100
H2042       H  0.85383696  0.62618033  0.91887100     0.07100
N2043       N  0.80383440  0.56764269  0.51754905    -0.25900
N2044       N  0.83871712  0.45033827  0.94517693    -0.25500
N2045       N  0.90662005  0.56697653  0.53615410     0.01500
C2046       C  0.80409170  0.37323038  0.54307962     0.42900
C2047       C  0.94089804  0.42869273  0.96450169    -0.06700
N2048       N  0.83579989  0.56725953  0.94485956    -0.25500
H2049       H  0.85906250  0.39496686  0.91863760     0.07100
N2050       N  0.82254286  0.40686463  0.55467553    -0.46700
H2051       H  0.96114072  0.42682545  0.97457177     0.07100
C2052       C  0.93085482  0.60852972  0.93492764     0.42800
C2053       C  0.88589066  0.42267531  0.57030297    -0.06200
Co2054     Co  0.91282774  0.51120766  0.50485831     0.73800
N2055       N  0.90749905  0.43001506  0.93224717    -0.46400
C2056       C  0.80142353  0.64739815  0.53778484     0.43000
N2057       N  0.92603414  0.58831276  0.55227543    -0.46400
Co2058     Co  0.86730164  0.51172681  0.94962562     0.73900
C2059       C  0.83657967  0.61266055  0.93098958    -0.06700
C2060       C  0.79275997  0.40146694  0.51938246    -0.06300
N2061       N  0.88160550  0.57023538  0.54722350    -0.25800
N2062       N  0.80349430  0.40083945  0.95771634    -0.46600
H2063       H  0.77603296  0.62473041  0.50004191     0.07100
C2064       C  0.93997850  0.58773080  0.96155415    -0.06700
Cl2065     Cl  0.86006706  0.51005416  0.49678253    -0.49700
C2066       C  0.93317662  0.41043001  0.93708727     0.42800
H2067       H  0.86575798  0.60658311  0.58253451     0.07000
N2068       N  0.90316244  0.59946011  0.93413119    -0.46400
C2069       C  0.69238289  0.14755325  0.56649349     0.42700
N2070       N  0.71173365  0.07005377  0.56476359     0.01500
C2071       C  0.70179220  0.90544779  0.67623384    -0.06300
H2072       H  0.70617956  0.06917356  0.70544453     0.07000
C2073       C  0.81783697  0.08509285  0.64410214    -0.06700
Co2074     Co  0.69433153  0.00376437  0.61055245     0.74200
N2075       N  0.71262336  0.04899837  0.66338230    -0.25900
Co2076     Co  0.74692399  0.99416071  0.66017050     0.74100
C2077       C  0.81615015  0.09570863  0.67254525     0.42800
N2078       N  0.79227065  0.06915780  0.57947393     0.01200
N2079       N  0.77952114  0.05152970  0.66017319     0.01300
N2080       N  0.67282746  0.91397611  0.64067142    -0.46700
H2081       H  0.66512886  0.12398340  0.60202338     0.07000
N2082       N  0.69557181  0.05454783  0.64236723     0.01600
N2083       N  0.78115431  0.93940766  0.65542904     0.01300
C2084       C  0.81902709  0.89298421  0.66298939     0.42900
N2085       N  0.77273799  0.06943263  0.56057660    -0.25300
C2086       C  0.67825533  0.90533921  0.57859622    -0.06200
N2087       N  0.71251028  0.11829853  0.55447806    -0.46400
N2088       N  0.79460969  0.91072810  0.67424268    -0.46600
C2089       C  0.69134934  0.87363211  0.55801647     0.42700
N2090       N  0.69560912  0.94210797  0.63749359     0.01500
N2091       N  0.77319580  0.95269152  0.55625983    -0.25300
N2092       N  0.69342986  0.06687732  0.58430088    -0.25800
N2093       N  0.79323300  0.94967725  0.57459282     0.01200
H2094       H  0.76041558  0.90134531  0.52394050     0.07100
H2095       H  0.83766869  0.91795552  0.62289223     0.07100
N2096       N  0.71366251  0.93807768  0.65784361    -0.25900
N2097       N  0.79541502  0.05594206  0.63851456    -0.25500
N2098       N  0.71167546  0.95014621  0.56033324     0.01500
C2099       C  0.67259797  0.09386373  0.67353888     0.42900
C2100       C  0.77456790  0.11476724  0.54672681    -0.06700
N2101       N  0.79676533  0.94394898  0.63362942    -0.25500
H2102       H  0.83575149  0.08926951  0.63104980     0.07100
N2103       N  0.67248609  0.08065502  0.64762635    -0.46700
H2104       H  0.76035687  0.12695700  0.53080515     0.07100
C2105       C  0.79810700  0.87807452  0.55106384     0.42800
C2106       C  0.67982119  0.11334674  0.58650739    -0.06200
Co2107     Co  0.74214940  0.01047220  0.55952832     0.73800
N2108       N  0.80692490  0.11396755  0.58023237    -0.46400
C2109       C  0.67450864  0.88873133  0.66415360     0.43000
N2110       N  0.71222569  0.90384795  0.54774638    -0.46400
Co2111     Co  0.79451412  0.00490399  0.60626680     0.73900
C2112       C  0.81987459  0.91495418  0.63618247    -0.06700
C2113       C  0.69944756  0.07209597  0.68462965    -0.06300
N2114       N  0.69277055  0.95051771  0.57937402    -0.25800
N2115       N  0.79191800  0.07372483  0.68151433    -0.46600
H2116       H  0.70946716  0.89933487  0.69657468     0.07100
C2117       C  0.77508147  0.91051061  0.53998338    -0.06700
Cl2118     Cl  0.74460071  0.00304130  0.60963233    -0.49700
C2119       C  0.79709604  0.14487311  0.55985585     0.42800
H2120       H  0.66303004  0.89292613  0.59310872     0.07000
N2121       N  0.80815917  0.90532607  0.57260306    -0.46400
C2122       C  0.67350704  0.09668648  0.84172686     0.42700
N2123       N  0.71328565  0.05729580  0.84873700     0.01500
C2124       C  0.73235540  0.89849360  0.95974525    -0.06300
H2125       H  0.74663448  0.12258847  0.97477180     0.07000
C2126       C  0.82340720  0.10804247  0.91501879    -0.06700
Co2127     Co  0.70521793  0.00450557  0.90166906     0.74200
N2128       N  0.73120174  0.06446711  0.94674565    -0.25900
Co2129     Co  0.76213535  0.00594009  0.94430632     0.74100
C2130       C  0.81331914  0.14172019  0.93653548     0.42800
N2131       N  0.79946506  0.05820352  0.85884225     0.01200
N2132       N  0.79222080  0.06601905  0.93816033     0.01300
N2133       N  0.69724443  0.89943313  0.92897869    -0.46700
H2134       H  0.66139102  0.08992435  0.88573046     0.07000
N2135       N  0.70973715  0.06436779  0.92990782     0.01600
N2136       N  0.79311243  0.94713453  0.94040320     0.01300
C2137       C  0.81411026  0.87114567  0.94171181     0.42900
N2138       N  0.77888334  0.05792740  0.84069127    -0.25300
C2139       C  0.67732421  0.91693113  0.87069726    -0.06200
N2140       N  0.69689087  0.07753363  0.82939288    -0.46400
N2141       N  0.79524371  0.90245529  0.95430473    -0.46600
C2142       C  0.67742566  0.89704417  0.84358843     0.42700
N2143       N  0.71035954  0.94552465  0.93009659     0.01500
N2144       N  0.77959067  0.94490073  0.84185500    -0.25300
N2145       N  0.70065317  0.06015309  0.87226044    -0.25800
N2146       N  0.79972133  0.94506975  0.86046885     0.01200
H2147       H  0.77769572  0.90718125  0.80264149     0.07100
H2148       H  0.83655133  0.88742530  0.90215475     0.07100
N2149       N  0.73172822  0.94574231  0.94717601    -0.25900
N2150       N  0.80866684  0.06313097  0.91707013    -0.25500
N2151       N  0.71409751  0.94535141  0.84978400     0.01500
C2152       C  0.70691670  0.14013938  0.94943457     0.42900
C2153       C  0.78634348  0.09114041  0.82059902    -0.06700
N2154       N  0.80891029  0.94643230  0.91885875    -0.25500
H2155       H  0.83713872  0.11840901  0.89869328     0.07100
N2156       N  0.69505868  0.10908993  0.93042495    -0.46700
H2157       H  0.77515274  0.09644616  0.80172136     0.07100
C2158       C  0.81559929  0.89109535  0.83113365     0.42800
C2159       C  0.67701521  0.08769800  0.87014911    -0.06200
Co2160     Co  0.74641340  0.00133509  0.84434903     0.73800
N2161       N  0.82018738  0.08982393  0.85262420    -0.46400
C2162       C  0.70983207  0.86754851  0.94707362     0.43000
N2163       N  0.70034532  0.91730793  0.83115209    -0.46400
Co2164     Co  0.80447414  0.00310248  0.88898489     0.73900
C2165       C  0.82340279  0.90091428  0.91836926    -0.06700
C2166       C  0.73081556  0.11012514  0.96047923    -0.06300
N2167       N  0.69998950  0.94725978  0.87255409    -0.25800
N2168       N  0.79373745  0.11315914  0.94985748    -0.46600
H2169       H  0.74843981  0.88478758  0.97355717     0.07100
C2170       C  0.78811743  0.91215350  0.82192434    -0.06700
Cl2171     Cl  0.75459900  0.00363630  0.89445144    -0.49700
C2172       C  0.81370999  0.11291376  0.82925076     0.42800
H2173       H  0.66043142  0.91601764  0.88510504     0.07000
N2174       N  0.82101760  0.91415490  0.85472145    -0.46400
C2175       C  0.55482052  0.37484938  0.68104152     0.42700
N2176       N  0.53387832  0.38192033  0.71954978     0.01500
C2177       C  0.53823053  0.15481570  0.79825924    -0.06300
H2178       H  0.52600188  0.10705684  0.71590185     0.07000
C2179       C  0.91942572  0.24236877  0.71596960    -0.06700
Co2180     Co  0.54849538  0.28784540  0.75342714     0.74200
N2181       N  0.52494286  0.18937421  0.72811970    -0.25900
Co2182     Co  0.99257531  0.19864191  0.75675941     0.74100
C2183       C  0.91826838  0.18620950  0.71096792     0.42800
N2184       N  0.95125610  0.36521050  0.72450026     0.01200
N2185       N  0.95858892  0.20532503  0.72889820     0.01300
N2186       N  0.56850579  0.22256295  0.79778323    -0.46700
H2187       H  0.57987821  0.30297980  0.69538985     0.07000
N2188       N  0.54414057  0.22678860  0.72614964     0.01600
N2189       N  0.96050731  0.20935019  0.78558323     0.01300
C2190       C  0.92166387  0.19486096  0.80686940     0.42900
N2191       N  0.97224990  0.39854937  0.72265671    -0.25300
C2192       C  0.56960810  0.34733076  0.80351324    -0.06200
N2193       N  0.53498594  0.40270720  0.69482656    -0.46400
N2194       N  0.94550213  0.17162796  0.79743225    -0.46600
C2195       C  0.56180307  0.39481595  0.81789278     0.42700
N2196       N  0.54546615  0.23412487  0.78429953     0.01500
N2197       N  0.97660985  0.40086938  0.78417522    -0.25300
N2198       N  0.55089738  0.34104560  0.72200868    -0.25800
N2199       N  0.95542355  0.36759814  0.78495745     0.01200
H2200       H  0.99569847  0.44878738  0.81566131     0.07100
H2201       H  0.90568593  0.27757571  0.79760665     0.07100
N2202       N  0.52664349  0.19578031  0.78449525    -0.25900
N2203       N  0.94404725  0.25007131  0.72819379    -0.25500
N2204       N  0.53788600  0.39003076  0.78062200     0.01500
C2205       C  0.56232589  0.16263350  0.70395530     0.42900
C2206       C  0.96970160  0.42388008  0.69877408    -0.06700
N2207       N  0.94646918  0.25443188  0.78520085    -0.25500
H2208       H  0.90241458  0.27072844  0.71587437     0.07100
N2209       N  0.56597363  0.21248832  0.71188398    -0.46700
H2210       H  0.98478819  0.45138961  0.69079231     0.07100
C2211       C  0.95838168  0.39590353  0.82609834     0.42800
C2212       C  0.56554771  0.33502253  0.69944344    -0.06200
Co2213     Co  0.00512953  0.39557631  0.75154679     0.73800
N2214       N  0.93485849  0.36482145  0.70274916    -0.46400
C2215       C  0.56647727  0.17309440  0.80661841     0.43000
N2216       N  0.54186537  0.41925483  0.80259495    -0.46400
Co2217     Co  0.94940236  0.31046699  0.75555689     0.73900
C2218       C  0.92287968  0.24959974  0.79890807    -0.06700
C2219       C  0.53501985  0.14617196  0.71513771    -0.06300
N2220       N  0.55359127  0.34732148  0.78115107    -0.25800
N2221       N  0.94331916  0.16547825  0.71925330    -0.46600
H2222       H  0.52992799  0.11511371  0.79868347     0.07100
C2223       C  0.97925111  0.42253672  0.80908447    -0.06700
Cl2224     Cl  0.99883163  0.29742158  0.75408404    -0.49700
C2225       C  0.94487857  0.40065799  0.68518949     0.42800
H2226       H  0.58359530  0.31606999  0.81003115     0.07000
N2227       N  0.94442758  0.36343126  0.80924642    -0.46400
C2228       C  0.56797135  0.82662694  0.70521066     0.42700
N2229       N  0.53245743  0.80378901  0.72900722     0.01500
C2230       C  0.53108677  0.58017517  0.80801968    -0.06300
H2231       H  0.51614725  0.55532971  0.69176439     0.07000
C2232       C  0.93471501  0.65327941  0.70189501    -0.06700
Co2233     Co  0.54919573  0.70144101  0.75527285     0.74200
N2234       N  0.52917883  0.60935165  0.72326924    -0.25900
Co2235     Co  0.99881925  0.60559838  0.75369535     0.74100
C2236       C  0.94740631  0.61354298  0.68508327     0.42800
N2237       N  0.94805193  0.76599374  0.72886093     0.01200
N2238       N  0.96780505  0.61202810  0.72365850     0.01300
N2239       N  0.56302913  0.64495803  0.80725672    -0.46700
H2240       H  0.59043468  0.74858783  0.71249867     0.07000
N2241       N  0.54785868  0.64751671  0.72370489     0.01600
N2242       N  0.96816880  0.60614777  0.78382780     0.01300
C2243       C  0.94766515  0.59921610  0.82217981     0.42900
N2244       N  0.96596063  0.80593160  0.72956563    -0.25300
C2245       C  0.57222835  0.76391439  0.80104099    -0.06200
N2246       N  0.54360592  0.84476557  0.71604636    -0.46400
N2247       N  0.96805040  0.57851608  0.80656155    -0.46600
C2248       C  0.56932810  0.81649000  0.81194897     0.42700
N2249       N  0.54915759  0.64207878  0.78408638     0.01500
N2250       N  0.96638995  0.80108087  0.78607249    -0.25300
N2251       N  0.54943241  0.76232366  0.72830948    -0.25800
N2252       N  0.94971321  0.75944854  0.78634512     0.01200
H2253       H  0.95940931  0.88099117  0.79936970     0.07100
H2254       H  0.92013292  0.67135968  0.81402395     0.07100
N2255       N  0.52983785  0.60518140  0.78404447    -0.25900
N2256       N  0.94915043  0.65049710  0.72507132    -0.25500
N2257       N  0.53320953  0.79857980  0.78657155     0.01500
C2258       C  0.55050814  0.61635202  0.68335225     0.42900
C2259       C  0.95389960  0.84664948  0.71595974    -0.06700
N2260       N  0.94961640  0.64471862  0.78420633    -0.25500
H2261       H  0.91927536  0.68287571  0.69645778     0.07100
N2262       N  0.56066009  0.65346907  0.70030395    -0.46700
H2263       H  0.96162769  0.88675813  0.71559153     0.07100
C2264       C  0.92581773  0.81713308  0.80838272     0.42800
C2265       C  0.57170828  0.77283637  0.71349622    -0.06200
Co2266     Co  0.49968387  0.80387710  0.75783315     0.73800
N2267       N  0.92462747  0.77686351  0.71560828    -0.46400
C2268       C  0.55280426  0.60785014  0.82396533     0.43000
N2269       N  0.54485797  0.83665487  0.80154646    -0.46400
Co2270     Co  0.94910094  0.70448860  0.75609005     0.73900
C2271       C  0.93536867  0.64273621  0.80725031    -0.06700
C2272       C  0.53017259  0.58581544  0.69892297    -0.06300
N2273       N  0.54995560  0.75692600  0.78531504    -0.25800
N2274       N  0.96767795  0.58904623  0.69963693    -0.46600
H2275       H  0.51655726  0.55030760  0.81424918     0.07100
C2276       C  0.95284076  0.84024009  0.79935085    -0.06700
Cl2277     Cl  0.99917478  0.70424560  0.75569385    -0.49700
C2278       C  0.92648281  0.82635067  0.70656410     0.42800
H2279       H  0.59071113  0.73891905  0.80072544     0.07000
N2280       N  0.92634351  0.76738949  0.79951490    -0.46400
C2281       C  0.87697122  0.80438605  0.82301946    -0.12100
C2282       C  0.89748342  0.84005584  0.81381128     0.04900
C2283       C  0.88856993  0.89078825  0.80546068    -0.07400
C2284       C  0.85984334  0.90456552  0.80683247    -0.08100
C2285       C  0.83967684  0.86884639  0.81659241    -0.02700
C2286       C  0.84846267  0.81781902  0.82397715     0.04200
N2287       N  0.82868222  0.78004168  0.83387096     0.66700
H2288       H  0.88307279  0.76478044  0.82906882     0.15600
H2289       H  0.85364684  0.94501831  0.80262631     0.15300
N2290       N  0.90831509  0.92965816  0.79701199     0.74400
O2291       O  0.83424572  0.75345661  0.85478594    -0.39100
O2292       O  0.80666977  0.77004532  0.82043540    -0.39000
O2293       O  0.90529829  0.95150299  0.77431390    -0.39700
O2294       O  0.92477960  0.94987119  0.81419458    -0.39800
C2295       C  0.61462870  0.81098946  0.83570074    -0.12100
C2296       C  0.59474775  0.84408280  0.82285319     0.04900
C2297       C  0.60288367  0.89645104  0.81627813    -0.07400
C2298       C  0.63148116  0.91111300  0.81979406    -0.08100
C2299       C  0.65137771  0.87617729  0.83128892    -0.02700
C2300       C  0.64243011  0.82623385  0.83965096     0.04200
N2301       N  0.66134452  0.79099938  0.85323706     0.66700
H2302       H  0.60873119  0.77167294  0.84215096     0.15600
H2303       H  0.63788759  0.95117854  0.81538619     0.15300
N2304       N  0.58260479  0.93584365  0.80805112     0.74400
O2305       O  0.66116134  0.78814253  0.87859028    -0.39100
O2306       O  0.67549930  0.75811830  0.83989028    -0.39000
O2307       O  0.55808458  0.93485853  0.81747730    -0.39700
O2308       O  0.59063919  0.97748687  0.79646564    -0.39800
C2309       C  0.87392512  0.20137707  0.82540292    -0.12100
C2310       C  0.89373433  0.17016858  0.81171910     0.04900
C2311       C  0.88419782  0.12366259  0.79874600    -0.07400
C2312       C  0.85565217  0.10905600  0.80064532    -0.08100
C2313       C  0.83635119  0.14007925  0.81504429    -0.02700
C2314       C  0.84561037  0.18762129  0.82651815     0.04200
N2315       N  0.82657151  0.22073535  0.84100302     0.66700
H2316       H  0.88027351  0.23785081  0.83491749     0.15600
H2317       H  0.84907576  0.07103953  0.79281850     0.15300
N2318       N  0.90297144  0.09062576  0.78391188     0.74400
O2319       O  0.80785824  0.24644471  0.82839296    -0.39100
O2320       O  0.83004641  0.22814302  0.86593973    -0.39000
O2321       O  0.92388075  0.06980867  0.79567268    -0.39700
O2322       O  0.89601996  0.07482202  0.76068595    -0.39800
C2323       C  0.59410565  0.10557247  0.83157626    -0.12100
C2324       C  0.59269538  0.14238030  0.81079129     0.04900
C2325       C  0.61789039  0.15663070  0.79729138    -0.07400
C2326       C  0.64384505  0.13745455  0.80650959    -0.08100
C2327       C  0.64553295  0.10454635  0.82887579    -0.02700
C2328       C  0.62014013  0.08615909  0.84074209     0.04200
N2329       N  0.62019621  0.04881808  0.86245488     0.66700
H2330       H  0.57501615  0.09392169  0.84168641     0.15600
H2331       H  0.66298163  0.15071823  0.79700047     0.15300
N2332       N  0.61769264  0.19209475  0.77476077     0.74400
O2333       O  0.60515498  0.05680734  0.88286589    -0.39100
O2334       O  0.63329280  0.00567915  0.86029804    -0.39000
O2335       O  0.63605187  0.22777723  0.77292753    -0.39700
O2336       O  0.60079007  0.18478319  0.75544833    -0.39800
C2337       C  0.86614778  0.85142468  0.65963825    -0.12100
C2338       C  0.84561551  0.87411627  0.67639577     0.04900
C2339       C  0.85316977  0.88481599  0.70343222    -0.07400
C2340       C  0.88080264  0.87375514  0.71269538    -0.08100
C2341       C  0.90128588  0.85281982  0.69529960    -0.02700
C2342       C  0.89353858  0.84116501  0.66865179     0.04200
N2343       N  0.91312821  0.81673588  0.65073917     0.66700
H2344       H  0.86126269  0.84261411  0.63887044     0.15600
H2345       H  0.88597063  0.87958834  0.73378527     0.15300
N2346       N  0.83323159  0.90664074  0.72166024     0.74400
O2347       O  0.90691129  0.77399598  0.63906946    -0.39100
O2348       O  0.93682075  0.83749043  0.64679883    -0.39000
O2349       O  0.81896866  0.87624898  0.73627297    -0.39700
O2350       O  0.83328276  0.95559802  0.72640180    -0.39800
C2351       C  0.64154188  0.87919139  0.70315523    -0.12100
C2352       C  0.64768985  0.87024610  0.67598337     0.04900
C2353       C  0.62555252  0.85392417  0.65840147    -0.07400
C2354       C  0.59814470  0.84914501  0.66797503    -0.08100
C2355       C  0.59211837  0.85652994  0.69508293    -0.02700
C2356       C  0.61409770  0.87160272  0.71278926     0.04200
N2357       N  0.60880252  0.87841514  0.74076256     0.66700
H2358       H  0.65785123  0.89280796  0.71683050     0.15600
H2359       H  0.58184057  0.83455778  0.65453363     0.15300
N2360       N  0.63062588  0.84033077  0.63080830     0.74400
O2361       O  0.61572447  0.84272436  0.75731346    -0.39100
O2362       O  0.60084761  0.92288860  0.74921678    -0.39000
O2363       O  0.65067325  0.80977123  0.62493791    -0.39700
O2364       O  0.61295152  0.85302908  0.61277882    -0.39800
C2365       C  0.89273041  0.11020689  0.69132000    -0.12100
C2366       C  0.89181903  0.15598887  0.70692284     0.04900
C2367       C  0.86522787  0.17445710  0.71618439    -0.07400
C2368       C  0.84040787  0.15080893  0.70660746    -0.08100
C2369       C  0.84143069  0.10824967  0.68889471    -0.02700
C2370       C  0.86791966  0.08572959  0.68255865     0.04200
N2371       N  0.86995150  0.03871645  0.66664354     0.66700
H2372       H  0.91283054  0.09449015  0.68500445     0.15600
H2373       H  0.82018622  0.16722540  0.71206818     0.15300
N2374       N  0.86284125  0.21663458  0.73533967     0.74400
O2375       O  0.88669186  0.03657835  0.64711162    -0.39100
O2376       O  0.85716008  0.99756246  0.67377655    -0.39000
O2377       O  0.84291876  0.24955517  0.73343231    -0.39700
O2378       O  0.87813465  0.21672396  0.75622228    -0.39800
C2379       C  0.62928280  0.14467209  0.66757976    -0.12100
C2380       C  0.64525818  0.11178806  0.68471401     0.04900
C2381       C  0.63182276  0.08883099  0.70708387    -0.07400
C2382       C  0.60317721  0.10069683  0.71217848    -0.08100
C2383       C  0.58744883  0.13354063  0.69456573    -0.02700
C2384       C  0.60083564  0.15421822  0.67182597     0.04200
N2385       N  0.58575706  0.18687530  0.65312076     0.66700
H2386       H  0.63879028  0.16174853  0.64983438     0.15600
H2387       H  0.59355062  0.08585084  0.73034185     0.15300
N2388       N  0.64663197  0.05285673  0.72429881     0.74400
O2389       O  0.58957943  0.23610946  0.65324624    -0.39100
O2390       O  0.57249021  0.16590828  0.63379472    -0.39000
O2391       O  0.65479818  0.06748178  0.74736050    -0.39700
O2392       O  0.65079228  0.00587912  0.71681798    -0.39800
C2393       C  0.81790597  0.73139972  0.56013806    -0.12100
C2394       C  0.80117550  0.70701521  0.54018574     0.04900
C2395       C  0.78576721  0.74057710  0.52253681    -0.07400
C2396       C  0.78768984  0.79579703  0.52483024    -0.08100
C2397       C  0.80252173  0.81994099  0.54600758    -0.02700
C2398       C  0.81837749  0.78678947  0.56341780     0.04200
N2399       N  0.83409019  0.80818657  0.58540324     0.66700
H2400       H  0.83024035  0.70728771  0.57390451     0.15600
H2401       H  0.77583301  0.81983092  0.51075776     0.15300
N2402       N  0.76499914  0.71999397  0.50466335     0.74400
O2403       O  0.82641180  0.79864000  0.60913942    -0.39100
O2404       O  0.85802905  0.82779434  0.58133950    -0.39000
O2405       O  0.74342793  0.69970016  0.51479083    -0.39700
O2406       O  0.76461928  0.73480852  0.98046541    -0.39800
C2407       C  0.79737583  0.28051130  0.52683984    -0.12100
C2408       C  0.80373843  0.31469974  0.54825931     0.04900
C2409       C  0.81210139  0.29168325  0.57320950    -0.07400
C2410       C  0.81106630  0.23614283  0.57677667    -0.08100
C2411       C  0.80308698  0.20252673  0.55549912    -0.02700
C2412       C  0.79829177  0.22541357  0.53000330     0.04200
N2413       N  0.79591608  0.19287543  0.50668430     0.66700
H2414       H  0.79324445  0.29639655  0.50696470     0.15600
H2415       H  0.81579585  0.21951508  0.59641896     0.15300
N2416       N  0.82180155  0.32382382  0.59508151     0.74400
O2417       O  0.77566020  0.19943211  0.49053872    -0.39100
O2418       O  0.81468420  0.15905336  0.50160870    -0.39000
O2419       O  0.80541556  0.35627416  0.60619087    -0.39700
O2420       O  0.84638106  0.31756075  0.60436258    -0.39800
C2421       C  0.79429090  0.72977225  0.92343065    -0.12100
C2422       C  0.81160972  0.70075434  0.94100411     0.04900
C2423       C  0.83038983  0.72814491  0.95831909    -0.07400
C2424       C  0.83005400  0.78368719  0.95892032    -0.08100
C2425       C  0.81213100  0.81272630  0.94190138    -0.02700
C2426       C  0.79458185  0.78538306  0.92335510     0.04200
N2427       N  0.77799869  0.81313608  0.90350586     0.66700
H2428       H  0.78084986  0.70898181  0.90929846     0.15600
H2429       H  0.84439677  0.80432692  0.97231882     0.15300
N2430       N  0.85102613  0.70041432  0.97421142     0.74400
O2431       O  0.77688629  0.79651858  0.87956046    -0.39100
O2432       O  0.76343015  0.85279349  0.90993205    -0.39000
O2433       O  0.87634330  0.71316152  0.47309542    -0.39700
O2434       O  0.84363542  0.66323292  0.48977052    -0.39800
C2435       C  0.79037952  0.23053331  0.93875149    -0.12100
C2436       C  0.81506535  0.20052446  0.93650197     0.04900
C2437       C  0.84064002  0.22739129  0.93226669    -0.07400
C2438       C  0.84126476  0.28302757  0.93236140    -0.08100
C2439       C  0.81678152  0.31297930  0.93697507    -0.02700
C2440       C  0.79119849  0.28586216  0.93966241     0.04200
N2441       N  0.76579852  0.31407774  0.94394008     0.66700
H2442       H  0.77023974  0.21088751  0.94018768     0.15600
H2443       H  0.86127946  0.30258173  0.92990348     0.15300
N2444       N  0.86626026  0.19886472  0.92833040     0.74400
O2445       O  0.75191893  0.33216107  0.42372873    -0.39100
O2446       O  0.75931213  0.32667078  0.96759759    -0.39000
O2447       O  0.87936452  0.20363889  0.90649683    -0.39700
O2448       O  0.87764262  0.17464523  0.94781983    -0.39800
C2449       C  0.93425747  0.55535811  0.89367166    -0.12100
C2450       C  0.94473328  0.59856519  0.90871510     0.04900
C2451       C  0.95898169  0.63881640  0.89502468    -0.07400
C2452       C  0.96074734  0.63720022  0.86675827    -0.08100
C2453       C  0.94782680  0.59645788  0.85182563    -0.02700
C2454       C  0.93392572  0.55558530  0.86543460     0.04200
N2455       N  0.91661621  0.51806709  0.85117720     0.66700
H2456       H  0.92257465  0.52485110  0.90395258     0.15600
H2457       H  0.97142457  0.66881731  0.85632403     0.15300
N2458       N  0.97061932  0.68252397  0.90943258     0.74400
O2459       O  0.91185314  0.47337120  0.86138539    -0.39100
O2460       O  0.90165014  0.53304138  0.83143653    -0.39000
O2461       O  0.99318949  0.67655392  0.92267440    -0.39700
O2462       O  0.96065170  0.72830349  0.90595325    -0.39800
C2463       C  0.91994525  0.57669168  0.64850951    -0.12100
C2464       C  0.94235905  0.60824892  0.65608121     0.04900
C2465       C  0.95617472  0.63919461  0.63649051    -0.07400
C2466       C  0.94700830  0.63694575  0.60937575    -0.08100
C2467       C  0.92345740  0.60692660  0.60189247    -0.02700
C2468       C  0.90996576  0.57625802  0.62213840     0.04200
N2469       N  0.88587496  0.54425407  0.61691576     0.66700
H2470       H  0.90912413  0.55357600  0.66359412     0.15600
H2471       H  0.95728922  0.66098565  0.59437017     0.15300
N2472       N  0.97857377  0.67445539  0.64377580     0.74400
O2473       O  0.88959251  0.49549230  0.61362308    -0.39100
O2474       O  0.86232385  0.55980430  0.62538574    -0.39000
O2475       O  0.99876697  0.68122844  0.62788124    -0.39700
O2476       O  0.97615551  0.70481742  0.66377832    -0.39800
C2477       C  0.97434705  0.42261727  0.87321155    -0.12100
C2478       C  0.95729842  0.39092545  0.85643230     0.04900
C2479       C  0.93923827  0.35448208  0.86929454    -0.07400
C2480       C  0.93599713  0.35544636  0.89727328    -0.08100
C2481       C  0.94953278  0.39300147  0.91340016    -0.02700
C2482       C  0.97043967  0.42459256  0.90148069     0.04200
N2483       N  0.98723872  0.45977525  0.91742848     0.66700
H2484       H  0.98956581  0.44770883  0.86420844     0.15600
H2485       H  0.92004547  0.33049073  0.90607853     0.15300
N2486       N  0.92248584  0.31782500  0.85447856     0.74400
O2487       O  0.01367399  0.45622851  0.91692465    -0.39100
O2488       O  0.97597858  0.49669142  0.93055354    -0.39000
O2489       O  0.92565093  0.26913809  0.85913633    -0.39700
O2490       O  0.89991415  0.33380365  0.84360995    -0.39800
C2491       C  0.94796435  0.44135455  0.63881742    -0.12100
C2492       C  0.93756735  0.40115066  0.65553912     0.04900
C2493       C  0.92264138  0.35924122  0.64301198    -0.07400
C2494       C  0.91771886  0.35950936  0.61506225    -0.08100
C2495       C  0.92883894  0.39876547  0.59837849    -0.02700
C2496       C  0.94584697  0.43819024  0.61038767     0.04200
N2497       N  0.96175911  0.47384699  0.59407393     0.66700
H2498       H  0.95902632  0.47415742  0.64791103     0.15600
H2499       H  0.90451562  0.32908895  0.60631143     0.15300
N2500       N  0.91243883  0.31550780  0.65815268     0.74400
O2501       O  0.96673148  0.52006155  0.60224141    -0.39100
O2502       O  0.97606393  0.45567062  0.57489652    -0.39000
O2503       O  0.88780762  0.31695540  0.66731039    -0.39700
O2504       O  0.92530010  0.27190213  0.65702011    -0.39800
C2505       C  0.69849705  0.72984389  0.97485838    -0.12100
C2506       C  0.70097788  0.69770665  0.95197755     0.04900
C2507       C  0.70504952  0.72218590  0.92670048    -0.07400
C2508       C  0.70748452  0.77773560  0.92508320    -0.08100
C2509       C  0.70581427  0.80931985  0.94828692    -0.02700
C2510       C  0.70118257  0.78483557  0.97307469     0.04200
N2511       N  0.70044503  0.81551927  0.49702676     0.66700
H2512       H  0.69464628  0.71211116  0.99432631     0.15600
H2513       H  0.71126102  0.79613481  0.90575945     0.15300
N2514       N  0.70778555  0.69123035  0.90275962     0.74400
O2515       O  0.68217363  0.85152501  0.49912832    -0.39100
O2516       O  0.72278001  0.81840365  0.51076262    -0.39000
O2517       O  0.68742873  0.66368206  0.89443653    -0.39700
O2518       O  0.72916252  0.69638350  0.88817467    -0.39800
C2519       C  0.70571255  0.27850058  0.97946577    -0.12100
C2520       C  0.69793138  0.30979297  0.95728908     0.04900
C2521       C  0.68953806  0.28410498  0.93323257    -0.07400
C2522       C  0.69156499  0.22868156  0.93112150    -0.08100
C2523       C  0.70120453  0.19784790  0.95291413    -0.02700
C2524       C  0.70697528  0.22325640  0.97760062     0.04200
N2525       N  0.71228971  0.19281140  0.50174888     0.66700
H2526       H  0.71038996  0.29700972  0.99863520     0.15600
H2527       H  0.68633950  0.20993114  0.91211896     0.15300
N2528       N  0.67942963  0.31368122  0.91060022     0.74400
O2529       O  0.72805062  0.21092391  0.52010463    -0.39100
O2530       O  0.69832260  0.15140110  0.50593428    -0.39000
O2531       O  0.69656451  0.33182152  0.89375759    -0.39700
O2532       O  0.65342593  0.31492330  0.90535652    -0.39800
C2533       C  0.67086305  0.72908323  0.55068606    -0.12100
C2534       C  0.69545443  0.70281692  0.55926475     0.04900
C2535       C  0.71859060  0.73317579  0.56876404    -0.07400
C2536       C  0.71656176  0.78893732  0.56804234    -0.08100
C2537       C  0.69199580  0.81487379  0.55909410    -0.02700
C2538       C  0.66864918  0.78433079  0.55104175     0.04200
N2539       N  0.64289135  0.80863446  0.54218719     0.66700
H2540       H  0.65292925  0.70622843  0.54385500     0.15600
H2541       H  0.73430169  0.81262762  0.57454373     0.15300
N2542       N  0.74370302  0.70902821  0.57993440     0.74400
O2543       O  0.62983041  0.83943194  0.55764477    -0.39100
O2544       O  0.63104429  0.79322616  0.52074138    -0.39000
O2545       O  0.74878708  0.66045115  0.57693769    -0.39700
O2546       O  0.76097587  0.73645017  0.59336142    -0.39800
C2547       C  0.67602764  0.29146318  0.55116839    -0.12100
C2548       C  0.69796480  0.31770981  0.56480203     0.04900
C2549       C  0.71720281  0.28770413  0.58069916    -0.07400
C2550       C  0.71475726  0.23201261  0.58087826    -0.08100
C2551       C  0.69274768  0.20616741  0.56727335    -0.02700
C2552       C  0.67277302  0.23645608  0.55292707     0.04200
N2553       N  0.64909310  0.21190762  0.54009889     0.66700
H2554       H  0.66070883  0.31425545  0.53971480     0.15600
H2555       H  0.72987704  0.20830250  0.59204952     0.15300
N2556       N  0.73862539  0.31230097  0.59724108     0.74400
O2557       O  0.64270443  0.22384325  0.01623625    -0.39100
O2558       O  0.63210519  0.18528849  0.55392616    -0.39000
O2559       O  0.73760959  0.36092297  0.60277021    -0.39700
O2560       O  0.75705332  0.28423748  0.60891378    -0.39800
C2561       C  0.54974025  0.58341679  0.90075156    -0.12100
C2562       C  0.56966349  0.61979793  0.91017536     0.04900
C2563       C  0.58155554  0.65512902  0.89153652    -0.07400
C2564       C  0.57576304  0.64994814  0.86393489    -0.08100
C2565       C  0.55733918  0.61101992  0.85397226    -0.02700
C2566       C  0.54338735  0.57901075  0.87303646     0.04200
N2567       N  0.52341167  0.54049786  0.86482408     0.66700
H2568       H  0.54069543  0.55534990  0.91464720     0.15600
H2569       H  0.58612243  0.67665605  0.85021068     0.15300
N2570       N  0.60081751  0.69497321  0.90033128     0.74400
O2571       O  0.53165460  0.49909397  0.85327275    -0.39100
O2572       O  0.49890061  0.54248501  0.87408399    -0.39000
O2573       O  0.62553865  0.69556312  0.89139092    -0.39700
O2574       O  0.59198430  0.73362703  0.91390327    -0.39800
C2575       C  0.56711518  0.66099560  0.61130216    -0.12100
C2576       C  0.56214909  0.61471292  0.59656543     0.04900
C2577       C  0.55163559  0.57035648  0.61039802    -0.07400
C2578       C  0.54715352  0.57229128  0.63831094    -0.08100
C2579       C  0.55344748  0.61765458  0.65333767    -0.02700
C2580       C  0.56288180  0.66290435  0.63929126     0.04200
N2581       N  0.56876609  0.71104647  0.65308469     0.66700
H2582       H  0.57616669  0.69493697  0.60133289     0.15600
H2583       H  0.54062725  0.53674568  0.64856973     0.15300
N2584       N  0.55089611  0.52022403  0.59754771     0.74400
O2585       O  0.59397251  0.72419745  0.65738292    -0.39100
O2586       O  0.54942031  0.74475941  0.65585231    -0.39000
O2587       O  0.57220142  0.49070652  0.59927507    -0.39700
O2588       O  0.53105396  0.50874454  0.58159037    -0.39800
C2589       C  0.55212133  0.36729971  0.86536106    -0.12100
C2590       C  0.56550020  0.40202176  0.84740483     0.04900
C2591       C  0.58304111  0.44182439  0.85791949    -0.07400
C2592       C  0.58576527  0.44754713  0.88597354    -0.08100
C2593       C  0.57423667  0.41044747  0.90405757    -0.02700
C2594       C  0.55692630  0.37041313  0.89341024     0.04200
N2595       N  0.54568243  0.33062601  0.91055650     0.66700
H2596       H  0.53887210  0.33608932  0.85744971     0.15600
H2597       H  0.59931743  0.47852161  0.89365113     0.15300
N2598       N  0.59933517  0.47481863  0.84048316     0.74400
O2599       O  0.02010882  0.33225936  0.91693481    -0.39100
O2600       O  0.55992821  0.28959184  0.91558390    -0.39000
O2601       O  0.60350136  0.52262493  0.84645240    -0.39700
O2602       O  0.61315965  0.45441597  0.82154779    -0.39800
C2603       C  0.54699886  0.38666386  0.60379427    -0.12100
C2604       C  0.57360154  0.36985751  0.59536499     0.04900
C2605       C  0.59249319  0.34912215  0.61508207    -0.07400
C2606       C  0.58618813  0.35370154  0.64255961    -0.08100
C2607       C  0.56046886  0.37428825  0.65129517    -0.02700
C2608       C  0.54044341  0.38852092  0.63143442     0.04200
N2609       N  0.51328472  0.40511425  0.63907232     0.66700
H2610       H  0.53204106  0.40206314  0.58917177     0.15600
H2611       H  0.60166395  0.34078175  0.65729386     0.15300
N2612       N  0.61874942  0.32530643  0.60741488     0.74400
O2613       O  0.50878091  0.45366345  0.64266367    -0.39100
O2614       O  0.99635289  0.37121522  0.64797310    -0.39000
O2615       O  0.63962852  0.32570348  0.62333357    -0.39700
O2616       O  0.62032501  0.29933190  0.58579271    -0.39800
loop_ 
_geom_bond_atom_site_label_1 
_geom_bond_atom_site_label_2 
_geom_bond_distance 
_geom_bond_site_symmetry_2 
_ccdc_geom_bond_type 
C1           N19   1.357       .  A
C1           C38   1.453       .  S
C1          C586   1.486       .  S
N2           N19   1.330       .  A
N2           N24   1.312       .  A
N2         Co693   2.105       .  S
C3           N28   1.355       .  A
C3           C41   1.484       .  S
C3           H48   1.081       .  S
H4           C45   1.081       .  S
C5           N29   1.326       .  A
C5            C9   1.445       .  S
C5           H34   1.082       .  S
Co6          N24   2.071       .  S
Co6          N14   2.063       .  S
Co6          N46   2.072       .  S
Co6          N22   2.065       .  S
Co6         Cl50   2.388       .  S
N7           C45   1.362       .  A
N7           N14   1.323       .  A
N7           Co8   2.147       .  S
Co8          N28   2.134       .  S
Co8         N665   2.143   1_554  S
Co8         N669   2.130   1_554  S
Co8         Cl50   2.537       .  S
C9           N47   1.370       .  A
C9          C631   1.498       .  S
N10          N17   1.316       .  A
N10          N40   1.326       .  A
N10         Co43   2.072       .  S
N11          N29   1.319       .  A
N11          N47   1.338       .  A
N11        Co662   2.142       .  S
N12          C41   1.338       .  A
N12          N22   1.317       .  A
H13          C38   1.078       .  S
N14          N35   1.311       .  A
N15          N33   1.323       .  A
N15          N20   1.334       .  A
N15        Co662   2.130       .  S
C16          N20   1.365       .  A
C16          C44   1.447       .  S
C16         C600   1.487       .  S
N17          C32   1.344       .  A
N17         Co39   2.098       .  S
C18          N46   1.339       .  A
C18          C21   1.455       .  S
C18          H52   1.080       .  S
C21          N42   1.358       .  A
C21         C572   1.488       .  S
N22          N28   1.322       .  A
N23          C49   1.343       .  A
N23          N25   1.312       .  A
N23         Co39   2.095       .  S
N24          C38   1.339       .  A
N25          N53   1.329       .  A
N25         Co43   2.078       .  S
H26          C49   1.047       .  S
H27          C44   1.082       .  S
N29         Co43   2.056       .  S
N30          N42   1.330       .  A
N30          N46   1.316       .  A
N30        Co693   2.116       .  S
C31          N35   1.334       .  A
C31          C45   1.492       .  S
C31         C642   1.493       .  S
C32          C51   1.468       .  S
C32          H36   1.078       .  S
N33          C44   1.329       .  A
N33         Co43   2.071       .  S
C37          N53   1.351       .  A
C37          C49   1.467       .  S
C37         C544   1.491       .  S
Co39        N656   2.106       .  S
Co39        N684   2.116       .  S
Co39       Cl704   2.492       .  S
N40          C51   1.346       .  A
C41         C614   1.487       .  S
Co43       Cl704   2.383       .  S
Cl50       Co693   2.492       .  S
Cl50       Co697   2.382   1_554  S
C51         C558   1.494       .  S
C54          N72   1.363       .  A
C54          C91   1.452       .  S
C54         C533   1.495       .  S
N55          N72   1.332       .  A
N55          N77   1.321       .  A
N55         Co92   2.115       .  S
C56          N81   1.347       .  A
C56          C94   1.473       .  S
C56         H101   1.067       .  S
H57          C98   1.077       .  S
C58          N82   1.342       .  A
C58          C62   1.456       .  S
C58          H87   1.079       .  S
Co59         N77   2.089       .  S
Co59         N67   2.080       .  S
Co59         N99   2.063       .  S
Co59         N75   2.092       .  S
Co59       Cl103   2.376   1_554  S
N60          C98   1.347       .  A
N60          N67   1.315       .  A
N60        Co715   2.109   1_554  S
Co61         N64   2.114       .  S
Co61         N68   2.108       .  S
Co61        N714   2.110       .  S
Co61        N735   2.106       .  S
Co61       Cl757   2.496       .  S
C62         N100   1.358       .  A
C62         C477   1.497       .  S
N63          N70   1.321       .  A
N63          N93   1.314       .  A
N63         Co96   2.071       .  S
N64          N82   1.317       .  A
N64         N100   1.329       .  A
N65          C94   1.354       .  A
N65          N75   1.329       .  A
H66          C91   1.081       .  S
N67          N88   1.328       .  A
N68          N86   1.312       .  A
N68          N73   1.329       .  A
C69          N73   1.355       .  A
C69          C97   1.452       .  S
C69         C460   1.483       .  S
N70          C85   1.358       .  A
N70        Co746   2.111       .  S
C71          N99   1.326       .  A
C71          C74   1.445       .  S
C71         H105   1.077       .  S
C74          N95   1.365       .  A
C74         C505   1.492       .  S
N75          N81   1.313       .  A
N76         C102   1.355       .  A
N76          N78   1.321       .  A
N76        Co746   2.123       .  S
N77          C91   1.334       .  A
N78         N106   1.312       .  A
N78         Co96   2.076       .  S
H79         C102   1.081       .  S
H80          C97   1.080       .  S
N81        Co715   2.106   1_554  S
N82         Co96   2.079       .  S
N83          N95   1.332       .  A
N83          N99   1.318       .  A
N83         Co92   2.122       .  S
C84          N88   1.350       .  A
C84          C98   1.473       .  S
C84         C446   1.504       .  S
C85         C104   1.481       .  S
C85          H89   1.081       .  S
N86          C97   1.340       .  A
N86         Co96   2.063       .  S
C90         N106   1.338       .  A
C90         C102   1.483       .  S
C90         C488   1.487       .  S
Co92        N724   2.111   1_554  S
Co92        N730   2.122   1_554  S
Co92       Cl103   2.539   1_554  S
N93         C104   1.336       .  A
C94         C432   1.514       .  S
Co96       Cl757   2.372       .  S
Cl103      Co715   2.496       .  S
Cl103      Co750   2.371       .  S
C104        C519   1.483       .  S
C107        N125   1.353       .  A
C107        C144   1.452       .  S
C107        C589   1.484       .  S
N108        N125   1.324       .  A
N108        N130   1.313       .  A
N108       Co145   2.105       .  S
C109        N134   1.359       .  A
C109        C147   1.487       .  S
C109        H154   1.081       .  S
H110        C151   1.081       .  S
C111        N135   1.326       .  A
C111        C115   1.441       .  S
C111        H140   1.082       .  S
Co112       N130   2.061       .  S
Co112       N120   2.038       .  S
Co112       N152   2.054   1_545  S
Co112       N128   2.056   1_545  S
Co112      Cl156   2.393       .  S
N113        C151   1.364       .  A
N113        N120   1.322       .  A
N113       Co114   2.146   1_545  S
Co114       N117   2.128   1_565  S
Co114       N134   2.132       .  S
Co114       N121   2.150       .  S
Co114      Cl156   2.521   1_565  S
C115        N153   1.361       .  A
C115        C407   1.479       .  S
N116        N123   1.314       .  A
N116        N146   1.334       .  A
N116       Co149   2.102       .  S
N117        N135   1.326       .  A
N117        N153   1.333       .  A
N118        C147   1.331       .  A
N118        N128   1.310       .  A
H119        C144   1.079       .  S
N120        N141   1.309       .  A
N121        N139   1.324       .  A
N121        N126   1.339       .  A
C122        N126   1.369       .  A
C122        C150   1.443       .  S
C122        C376   1.500       .  S
N123        C138   1.341       .  A
N123       Co145   2.088       .  S
C124        N152   1.338       .  A
C124        C127   1.445       .  S
C124        H158   1.074       .  S
C127        N148   1.359       .  A
C127        C575   1.488       .  S
N128        N134   1.323       .  A
N129        C155   1.343       .  A
N129        N131   1.313       .  A
N129       Co145   2.083   1_565  S
N130        C144   1.346       .  A
N131        N159   1.331       .  A
N131       Co149   2.105   1_565  S
H132        C155   1.079       .  S
H133        C150   1.082       .  S
N135       Co149   2.058       .  S
N136        N148   1.329       .  A
N136        N152   1.312       .  A
N136       Co145   2.110   1_565  S
C137        N141   1.330       .  A
C137        C151   1.489       .  S
C137        C418   1.489       .  S
C138        C157   1.465       .  S
C138        H142   1.079       .  S
N139        C150   1.325       .  A
N139       Co149   2.057   1_565  S
C143        N159   1.357       .  A
C143        C155   1.469       .  S
C143        C435   1.507       .  S
Co145      Cl156   2.496       .  S
N146        C157   1.357       .  A
C147        C390   1.488       .  S
Co149      Cl156   2.383       .  S
C157        C449   1.504       .  S
C160        N178   1.363       .  A
C160        C197   1.438       .  S
C160        C365   1.483       .  S
N161        N178   1.332       .  A
N161        N183   1.321       .  A
N161       Co198   2.129       .  S
C162        N187   1.349       .  A
C162        C200   1.467       .  S
C162        H207   1.079       .  S
H163        C204   1.077       .  S
C164        N188   1.342       .  A
C164        C168   1.452       .  S
C164        H193   1.079       .  S
Co165       N183   2.038       .  S
Co165       N173   2.075       .  S
Co165       N205   2.061   1_545  S
Co165       N181   2.066   1_545  S
Co165      Cl209   2.380       .  S
N166        C204   1.342       .  A
N166        N173   1.313       .  A
N166       Co167   2.088       .  S
Co167       N170   2.117       .  S
Co167       N187   2.111   1_545  S
Co167       N174   2.101   1_545  S
Co167      Cl209   2.498       .  S
C168        N206   1.358       .  A
C168        C474   1.491       .  S
N169        N176   1.324       .  A
N169        N199   1.311       .  A
N169       Co202   2.057       .  S
N170        N188   1.316       .  A
N170        N206   1.329       .  A
N171        C200   1.342       .  A
N171        N181   1.326       .  A
H172        C197   1.080       .  S
N173        N194   1.328       .  A
N174        N192   1.314       .  A
N174        N179   1.328       .  A
C175        N179   1.354       .  A
C175        C203   1.456       .  S
C175        C463   1.482       .  S
N176        C191   1.355       .  A
N176       Co198   2.120       .  S
C177        N205   1.328       .  A
C177        C180   1.437       .  S
C177        H211   1.082       .  S
C180        N201   1.361       .  A
C180        C337   1.475       .  S
N181        N187   1.317       .  A
N182        C208   1.356       .  A
N182        N184   1.324       .  A
N182       Co198   2.130   1_565  S
N183        C197   1.325       .  A
N184        N212   1.312       .  A
N184       Co202   2.052   1_565  S
H185        C208   1.081       .  S
H186        C203   1.080       .  S
N188       Co202   2.071       .  S
N189        N201   1.334       .  A
N189        N205   1.322       .  A
N189       Co198   2.114   1_565  S
C190        N194   1.349       .  A
C190        C204   1.467       .  S
C190        C561   1.495       .  S
C191        C210   1.476       .  S
C191        H195   1.081       .  S
N192        C203   1.341       .  A
N192       Co202   2.071   1_565  S
C196        N212   1.332       .  A
C196        C208   1.478       .  S
C196        C323   1.471       .  S
Co198      Cl209   2.515       .  S
N199        C210   1.332       .  A
C200        C547   1.488       .  S
Co202      Cl209   2.391       .  S
C210        C351   1.467       .  S
C213        N231   1.366       .  A
C213        C250   1.449       .  S
C213        C645   1.504       .  S
N214        N231   1.337       .  A
N214        N236   1.317       .  A
N214      Co1559   2.134       .  S
C215        N240   1.354       .  A
C215        C253   1.478       .  S
C215        H260   1.081       .  S
H216        C257   1.081       .  S
C217        N241   1.329       .  A
C217        C221   1.444       .  S
C217        H246   1.080       .  S
Co218       N236   2.065       .  S
Co218       N226   2.065       .  S
Co218       N258   2.054       .  S
Co218       N234   2.056       .  S
Co218     Cl1570   2.375   1_455  S
N219        C257   1.359       .  A
N219        N226   1.322       .  A
N219      Co1528   2.120   1_455  S
Co220       N223   2.123       .  S
Co220       N227   2.120       .  S
Co220      N1527   2.120       .  S
Co220      N1548   2.118       .  S
Co220      Cl262   2.523       .  S
C221        N259   1.360       .  A
C221        C404   1.487       .  S
N222        N229   1.314       .  A
N222        N252   1.326       .  A
N222       Co255   2.076       .  S
N223        N241   1.326       .  A
N223        N259   1.332       .  A
N224        C253   1.331       .  A
N224        N234   1.311       .  A
H225        C250   1.078       .  S
N226        N247   1.313       .  A
N227        N245   1.320       .  A
N227        N232   1.334       .  A
C228        N232   1.363       .  A
C228        C256   1.442       .  S
C228        C348   1.492       .  S
N229        C244   1.352       .  A
N229       Co251   2.112       .  S
C230        N258   1.340       .  A
C230        C233   1.448       .  S
C230        H264   1.080       .  S
C233        N254   1.356       .  A
C233        C628   1.485       .  S
N234        N240   1.323       .  A
N235        C261   1.358       .  A
N235        N237   1.317       .  A
N235       Co251   2.128       .  S
N236        C250   1.335       .  A
N237        N265   1.324       .  A
N237       Co255   2.074       .  S
H238        C261   1.077       .  S
H239        C256   1.082       .  S
N240      Co1528   2.118   1_455  S
N241       Co255   2.060       .  S
N242        N254   1.331       .  A
N242        N258   1.312       .  A
N242      Co1559   2.117       .  S
C243        N247   1.334       .  A
C243        C257   1.480       .  S
C243        C421   1.482       .  S
C244        C263   1.478       .  S
C244        H248   1.080       .  S
N245        C256   1.325       .  A
N245       Co255   2.050       .  S
C249        N265   1.345       .  A
C249        C261   1.475       .  S
C249        C516   1.513       .  S
Co251      N1522   2.134       .  S
Co251      N1550   2.117       .  S
Co251      Cl262   2.507       .  S
N252        C263   1.350       .  A
C253        C362   1.480       .  S
Co255      Cl262   2.376       .  S
Cl262     Co1526   2.375       .  S
C263        C530   1.510       .  S
C266        N284   1.362       .  A
C266        C303   1.432       .  S
C266        C393   1.471       .  S
N267        N284   1.335       .  A
N267        N289   1.323       .  A
N267       Co304   2.128   1_455  S
C268        N293   1.349       .  A
C268        C306   1.474       .  S
C268        H313   1.074       .  S
H269        C310   1.080       .  S
C270        N294   1.336       .  A
C270        C274   1.442       .  S
C270        H299   1.080       .  S
Co271       N289   2.041       .  S
Co271       N279   2.080       .  S
Co271       N311   2.049       .  S
Co271       N287   2.075       .  S
Co271     Cl1623   2.380   1_455  S
N272        C310   1.349       .  A
N272        N279   1.315       .  A
N272      Co1581   2.103   1_455  S
Co273       N276   2.092       .  S
Co273       N280   2.101       .  S
Co273      N1580   2.103       .  S
Co273      N1601   2.097       .  S
Co273      Cl315   2.500       .  S
C274        N312   1.348       .  A
C274        C502   1.464       .  S
N275        N282   1.325       .  A
N275        N305   1.316       .  A
N275       Co308   2.061       .  S
N276        N294   1.318       .  A
N276        N312   1.327       .  A
N277        C306   1.349       .  A
N277        N287   1.323       .  A
H278        C303   1.082       .  S
N279        N300   1.326       .  A
N280        N298   1.314       .  A
N280        N285   1.328       .  A
C281        N285   1.353       .  A
C281        C309   1.446       .  S
C281        C491   1.474       .  S
N282        C297   1.355       .  A
N282      Co1612   2.121       .  S
C283        N311   1.322       .  A
C283        C286   1.444       .  S
C283        H317   1.082       .  S
C286        N307   1.366       .  A
C286        C334   1.495       .  S
N287        N293   1.313       .  A
N288        C314   1.356       .  A
N288        N290   1.321       .  A
N288      Co1612   2.127       .  S
N289        C303   1.324       .  A
N290        N318   1.311       .  A
N290       Co308   2.049       .  S
H291        C314   1.079       .  S
H292        C309   1.079       .  S
N293      Co1581   2.097   1_455  S
N294       Co308   2.060       .  S
N295        N307   1.336       .  A
N295        N311   1.321       .  A
N295       Co304   2.133   1_455  S
C296        N300   1.349       .  A
C296        C310   1.467       .  S
C296        C617   1.499       .  S
C297        C316   1.475       .  S
C297        H301   1.081       .  S
N298        C309   1.337       .  A
N298       Co308   2.058       .  S
C302        N318   1.335       .  A
C302        C314   1.487       .  S
C302        C320   1.493       .  S
Co304      N1590   2.121       .  S
Co304      N1596   2.127       .  S
Co304     Cl1623   2.525       .  S
N305        C316   1.334       .  A
C306        C603   1.506       .  S
Co308      Cl315   2.383       .  S
Cl315     Co1579   2.380       .  S
Cl315     Co1612   2.525       .  S
C316        C379   1.476       .  S
C319        H326   1.084       .  S
C319        C320   1.411       .  A
C319        C324   1.398       .  A
C320        C321   1.412       .  A
C321        C322   1.412       .  A
C321        N328   1.429       .  S
C322        H327   1.084       .  S
C322        C323   1.410       .  A
C323        C324   1.404       .  A
C324        N325   1.434       .  S
N325        O329   1.263       .  A
N325        O330   1.262       .  A
N328        O332   1.262       .  A
N328        O331   1.262       .  A
C333        H340   1.084       .  S
C333        C334   1.409       .  A
C333        C338   1.391       .  A
C334        C335   1.421       .  A
C335        C336   1.421       .  A
C335        N342   1.441       .  S
C336        H341   1.083       .  S
C336        C337   1.410       .  A
C337        C338   1.400       .  A
C338        N339   1.429       .  S
N339        O343   1.261       .  A
N339        O344   1.262       .  A
N342        O346   1.263       .  A
N342        O345   1.262       .  A
C347        H354   1.080       .  S
C347        C348   1.408       .  A
C347        C352   1.394       .  A
C348        C349   1.416       .  A
C349        C350   1.413       .  A
C349        N356   1.432       .  S
C350        H355   1.084       .  S
C350        C351   1.407       .  A
C351        C352   1.402       .  A
C352        N353   1.431       .  S
N353        O357   1.262       .  A
N353        O358   1.262       .  A
N356        O360   1.262       .  A
N356        O359   1.262       .  A
C361        H368   1.084       .  S
C361        C362   1.391       .  A
C361        C366   1.403       .  A
C362        C363   1.427       .  A
C363        C364   1.398       .  A
C363        N370   1.434       .  S
C364        H369   1.084       .  S
C364        C365   1.390       .  A
C365        C366   1.429       .  A
C366        N367   1.434       .  S
N367        O371   1.263       .  A
N367        O372   1.261       .  A
N370        O374   1.259       .  A
N370        O373   1.263       .  A
C375        H382   1.078       .  S
C375        C376   1.411       .  A
C375        C380   1.397       .  A
C376        C377   1.413       .  A
C377        C378   1.415       .  A
C377        N384   1.428       .  S
C378        H383   1.083       .  S
C378        C379   1.411       .  A
C379        C380   1.402       .  A
C380        N381   1.434       .  S
N381        O385   1.262       .  A
N381        O386   1.262       .  A
N384        O388   1.262       .  A
N384        O387   1.262       .  A
C389        H396   1.083       .  S
C389        C390   1.402       .  A
C389        C394   1.409       .  A
C390        C391   1.424       .  A
C391        C392   1.398       .  A
C391        N398   1.435       .  S
C392        H397   1.084       .  S
C392        C393   1.392       .  A
C393        C394   1.413       .  A
C394        N395   1.425       .  S
N395        O399   1.262       .  A
N395        O400   1.260       .  A
N398        O402   1.263       .  A
N398        O401   1.263       .  A
C403        H410   1.084       .  S
C403        C404   1.395       .  A
C403        C408   1.400       .  A
C404        C405   1.428       .  A
C405        C406   1.404       .  A
C405        N412   1.435       .  S
C406        H411   1.084       .  S
C406        C407   1.392       .  A
C407        C408   1.420       .  A
C408        N409   1.433       .  S
N409        O413   1.262       .  A
N409        O414   1.261   1_545  A
N412        O416   1.261       .  A
N412        O415   1.263       .  A
C417        H424   1.085       .  S
C417        C418   1.405       .  A
C417        C422   1.392       .  A
C418        C419   1.413       .  A
C419        C420   1.420       .  A
C419        N426   1.428       .  S
C420        H425   1.083       .  S
C420        C421   1.413       .  A
C421        C422   1.404       .  A
C422        N423   1.429       .  S
N423        O427   1.260       .  A
N423        O428   1.262       .  A
N426        O430   1.262       .  A
N426        O429   1.262       .  A
C431        H438   1.083       .  S
C431        C432   1.408       .  A
C431        C436   1.412       .  A
C432        C433   1.417       .  A
C433        C434   1.406       .  A
C433        N440   1.422       .  S
C434        H439   1.080       .  S
C434        C435   1.402       .  A
C435        C436   1.415       .  A
C436        N437   1.425       .  S
N437        O441   1.261       .  A
N437        O442   1.262       .  A
N440       O1098   1.261   1_554  A
N440        O443   1.259       .  A
O444       N1094   1.261       .  A
C445        H452   1.081       .  S
C445        C446   1.403       .  A
C445        C450   1.404       .  A
C446        C447   1.421       .  A
C447        C448   1.418       .  A
C447        N454   1.431       .  S
C448        H453   1.083       .  S
C448        C449   1.407       .  A
C449        C450   1.408       .  A
C450        N451   1.425       .  S
N451        O455   1.258   1_554  A
N451        O456   1.262       .  A
N454        O458   1.262       .  A
N454        O457   1.262       .  A
C459        H466   1.082       .  S
C459        C460   1.400       .  A
C459        C464   1.408       .  A
C460        C461   1.417       .  A
C461        C462   1.406       .  A
C461        N468   1.435       .  S
C462        H467   1.084       .  S
C462        C463   1.400       .  A
C463        C464   1.419       .  A
C464        N465   1.438       .  S
N465        O469   1.262       .  A
N465        O470   1.261       .  A
N468       O1126   1.261       .  A
N468       O1125   1.262       .  A
O471       N1122   1.262       .  A
O472       N1122   1.261       .  A
C473        H480   1.084       .  S
C473        C474   1.402       .  A
C473        C478   1.402       .  A
C474        C475   1.413       .  A
C475        C476   1.409       .  A
C475        N482   1.430       .  S
C476        H481   1.083       .  S
C476        C477   1.408       .  A
C477        C478   1.407       .  A
C478        N479   1.419       .  S
N479       O1137   1.261       .  A
N479        O484   1.259       .  A
N482        O486   1.262       .  A
N482        O485   1.262       .  A
O483       N1133   1.261       .  A
C487        H494   1.084       .  S
C487        C488   1.414       .  A
C487        C492   1.402       .  A
C488        C489   1.405       .  A
C489        C490   1.408       .  A
C489        N496   1.429       .  S
C490        H495   1.084       .  S
C490        C491   1.410       .  A
C491        C492   1.406       .  A
C492        N493   1.440       .  S
N493        O497   1.262       .  A
N493        O498   1.263       .  A
N496        O500   1.262       .  A
N496        O499   1.262       .  A
C501        H508   1.085       .  S
C501        C502   1.384       .  A
C501        C506   1.388       .  A
C502        C503   1.417       .  A
C503        C504   1.412       .  A
C503        N510   1.436       .  S
C504        H509   1.083       .  S
C504        C505   1.403       .  A
C505        C506   1.429       .  A
C506        N507   1.427       .  S
N507        O511   1.257       .  A
N507        O512   1.263       .  A
N510        O514   1.262       .  A
N510        O513   1.262       .  A
C515        H522   1.070       .  S
C515        C516   1.410       .  A
C515        C520   1.419       .  A
C516        C517   1.419       .  A
C517        C518   1.400       .  A
C517        N524   1.425       .  S
C518        H523   1.085       .  S
C518        C519   1.398       .  A
C519        C520   1.413       .  A
C520        N521   1.432       .  S
N521        O525   1.261       .  A
N521        O526   1.261       .  A
N524        O528   1.262       .  A
N524        O527   1.262       .  A
C529        H536   1.081       .  S
C529        C530   1.408       .  A
C529        C534   1.417       .  A
C530        C531   1.419       .  A
C531        C532   1.405       .  A
C531        N538   1.427       .  S
C532        H537   1.084       .  S
C532        C533   1.402       .  A
C533        C534   1.415       .  A
C534        N535   1.435       .  S
N535        O539   1.261       .  A
N535        O540   1.262       .  A
N538        O542   1.262       .  A
N538        O541   1.262       .  A
C543        H550   1.084       .  S
C543        C544   1.404       .  A
C543        C548   1.401       .  A
C544        C545   1.415       .  A
C545        C546   1.414       .  A
C545        N552   1.431       .  S
C546        H551   1.083       .  S
C546        C547   1.406       .  A
C547        C548   1.398       .  A
C548       N1203   1.419       .  S
N549       C1202   1.419       .  S
N549        O553   1.263       .  A
N549        O554   1.259   1_556  A
N552        O556   1.262       .  A
N552        O555   1.262       .  A
C557        H564   1.083       .  S
C557        C558   1.402       .  A
C557        C562   1.403       .  A
C558        C559   1.415       .  A
C559        C560   1.410       .  A
C559        N566   1.428       .  S
C560        H565   1.084       .  S
C560        C561   1.406       .  A
C561        C562   1.410       .  A
C562       N1217   1.427       .  S
N563       C1216   1.427   1_554  S
N563        O567   1.262       .  A
N563        O568   1.261       .  A
N566        O570   1.262       .  A
N566        O569   1.261       .  A
C571        H578   1.084       .  S
C571        C572   1.406       .  A
C571        C576   1.402       .  A
C572        C573   1.421       .  A
C573        C574   1.415       .  A
C573        N580   1.445       .  S
C574        H579   1.084       .  S
C574        C575   1.406       .  A
C575        C576   1.410       .  A
C576        N577   1.434       .  S
N577        O581   1.261       .  A
N577        O582   1.262       .  A
N580        O584   1.263       .  A
N580        O583   1.262       .  A
C585        H592   1.084       .  S
C585        C586   1.407       .  A
C585        C590   1.404       .  A
C586        C587   1.420       .  A
C587        C588   1.415       .  A
C587        N594   1.445       .  S
C588        H593   1.083       .  S
C588        C589   1.404       .  A
C589        C590   1.407       .  A
C590        N591   1.433       .  S
N591       O1249   1.262       .  A
N591        O596   1.262       .  A
N594        O598   1.263       .  A
N594        O597   1.262       .  A
O595       N1245   1.262       .  A
C599        H606   1.083       .  S
C599        C600   1.401       .  A
C599        C604   1.411       .  A
C600        C601   1.411       .  A
C601        C602   1.401       .  A
C601        N608   1.430       .  S
C602        H607   1.083       .  S
C602        C603   1.408       .  A
C603        C604   1.418       .  A
C604        N605   1.421       .  S
N605        O609   1.259       .  A
N605        O610   1.259   1_455  A
N608        O612   1.262       .  A
N608        O611   1.262       .  A
C613        H620   1.084       .  S
C613        C614   1.402       .  A
C613        C618   1.408       .  A
C614        C615   1.412       .  A
C615        C616   1.405       .  A
C615        N622   1.421       .  S
C616        H621   1.082       .  S
C616        C617   1.401       .  A
C617        C618   1.418       .  A
C618        N619   1.426       .  S
N619        O623   1.262       .  A
N619        O624   1.262       .  A
N622        O626   1.261       .  A
N622        O625   1.259       .  A
C627        H634   1.084       .  S
C627        C628   1.410       .  A
C627        C632   1.411       .  A
C628        C629   1.407       .  A
C629        C630   1.405       .  A
C629        N636   1.437       .  S
C630        H635   1.084       .  S
C630        C631   1.415       .  A
C631        C632   1.408       .  A
C632        N633   1.428       .  S
N633       O1945   1.262       .  A
N633        O638   1.262       .  A
N636        O640   1.263       .  A
N636        O639   1.262       .  A
O637       N1941   1.262       .  A
C641        H648   1.083       .  S
C641        C642   1.402       .  A
C641        C646   1.412       .  A
C642        C643   1.421       .  A
C643        C644   1.405       .  A
C643        N650   1.440       .  S
C644        H649   1.082       .  S
C644        C645   1.401       .  A
C645        C646   1.410       .  A
C646        N647   1.413       .  S
N647        O651   1.260       .  A
N647       O1960   1.261   1_455  A
N650        O654   1.262       .  A
N650        O653   1.263       .  A
O652       N1955   1.261       .  A
C655        N673   1.357       .  A
C655        C692   1.452       .  S
C655       C1240   1.486       .  S
N656        N673   1.331       .  A
N656        N678   1.312       .  A
C657        N682   1.355       .  A
C657        C695   1.483       .  S
C657        H702   1.081       .  S
H658        C699   1.081       .  S
C659        N683   1.326       .  A
C659        C663   1.445       .  S
C659        H688   1.082       .  S
Co660       N678   2.070       .  S
Co660       N668   2.063       .  S
Co660       N700   2.072       .  S
Co660       N676   2.065       .  S
Co660      Cl704   2.388       .  S
N661        C699   1.362       .  A
N661        N668   1.323       .  A
N661       Co662   2.147       .  S
Co662       N682   2.132       .  S
Co662      Cl704   2.537       .  S
C663        N701   1.370       .  A
C663       C1285   1.499       .  S
N664        N671   1.316       .  A
N664        N694   1.326       .  A
N664       Co697   2.073       .  S
N665        N683   1.319       .  A
N665        N701   1.338       .  A
N666        C695   1.338       .  A
N666        N676   1.317       .  A
H667        C692   1.077       .  S
N668        N689   1.311       .  A
N669        N687   1.323       .  A
N669        N674   1.334       .  A
C670        N674   1.365       .  A
C670        C698   1.447       .  S
C670       C1254   1.487       .  S
N671        C686   1.344       .  A
N671       Co693   2.099   1_556  S
C672        N700   1.339       .  A
C672        C675   1.456       .  S
C672        H706   1.080       .  S
C675        N696   1.358       .  A
C675       C1226   1.488       .  S
N676        N682   1.322       .  A
N677        C703   1.341       .  A
N677        N679   1.313       .  A
N677       Co693   2.094   1_556  S
N678        C692   1.339       .  A
N679        N707   1.329       .  A
N679       Co697   2.078       .  S
H680        C703   1.057       .  S
H681        C698   1.082       .  S
N683       Co697   2.056       .  S
N684        N696   1.330       .  A
N684        N700   1.316       .  A
C685        N689   1.334       .  A
C685        C699   1.492       .  S
C685       C1296   1.493       .  S
C686        C705   1.469       .  S
C686        H690   1.078       .  S
N687        C698   1.329       .  A
N687       Co697   2.071       .  S
C691        N707   1.351       .  A
C691        C703   1.466       .  S
C691       C1198   1.491       .  S
N694        C705   1.346       .  A
C695       C1268   1.486       .  S
C705       C1212   1.495       .  S
C708        N726   1.362       .  A
C708        C745   1.452       .  S
C708       C1187   1.495       .  S
N709        N726   1.332       .  A
N709        N731   1.321       .  A
N709       Co746   2.115       .  S
C710        N735   1.348       .  A
C710        C748   1.473       .  S
C710        H755   1.062       .  S
H711        C752   1.077       .  S
C712        N736   1.342       .  A
C712        C716   1.456       .  S
C712        H741   1.079       .  S
Co713       N731   2.089       .  S
Co713       N721   2.080       .  S
Co713       N753   2.063       .  S
Co713       N729   2.091       .  S
Co713      Cl757   2.376       .  S
N714        C752   1.347       .  A
N714        N721   1.315       .  A
Co715       N718   2.114       .  S
Co715       N722   2.108       .  S
C716        N754   1.358       .  A
C716       C1131   1.497       .  S
N717        N724   1.321       .  A
N717        N747   1.314       .  A
N717       Co750   2.071       .  S
N718        N736   1.317       .  A
N718        N754   1.329       .  A
N719        C748   1.353       .  A
N719        N729   1.329       .  A
H720        C745   1.081       .  S
N721        N742   1.328       .  A
N722        N740   1.312       .  A
N722        N727   1.329       .  A
C723        N727   1.355       .  A
C723        C751   1.452       .  S
C723       C1114   1.483       .  S
N724        C739   1.358       .  A
C725        N753   1.326       .  A
C725        C728   1.445       .  S
C725        H759   1.077       .  S
C728        N749   1.365       .  A
C728       C1159   1.492       .  S
N729        N735   1.313       .  A
N730        C756   1.355       .  A
N730        N732   1.321       .  A
N731        C745   1.334       .  A
N732        N760   1.312       .  A
N732       Co750   2.076       .  S
H733        C756   1.081       .  S
H734        C751   1.080       .  S
N736       Co750   2.079       .  S
N737        N749   1.332       .  A
N737        N753   1.318       .  A
N737       Co746   2.122       .  S
C738        N742   1.350       .  A
C738        C752   1.473       .  S
C738       C1100   1.504       .  S
C739        C758   1.481       .  S
C739        H743   1.081       .  S
N740        C751   1.340       .  A
N740       Co750   2.063       .  S
C744        N760   1.338       .  A
C744        C756   1.483       .  S
C744       C1142   1.487       .  S
Co746      Cl757   2.538       .  S
N747        C758   1.336       .  A
C748       C1086   1.514       .  S
C758       C1173   1.484       .  S
C761        N779   1.352       .  A
C761        C798   1.452       .  S
C761       C1243   1.485       .  S
N762        N779   1.324       .  A
N762        N784   1.313       .  A
N762       Co799   2.105       .  S
C763        N788   1.360       .  A
C763        C801   1.487       .  S
C763        H808   1.081       .  S
H764        C805   1.081       .  S
C765        N789   1.326       .  A
C765        C769   1.441       .  S
C765        H794   1.082       .  S
Co766       N784   2.062       .  S
Co766       N774   2.038       .  S
Co766       N806   2.054   1_545  S
Co766       N782   2.056   1_545  S
Co766      Cl810   2.393       .  S
N767        C805   1.364       .  A
N767        N774   1.322       .  A
N767       Co768   2.146   1_545  S
Co768       N771   2.128   1_565  S
Co768       N788   2.132       .  S
Co768       N775   2.150       .  S
Co768      Cl810   2.521   1_565  S
C769        N807   1.361       .  A
C769       C1061   1.480       .  S
N770        N777   1.314       .  A
N770        N800   1.334       .  A
N770       Co803   2.103       .  S
N771        N789   1.326       .  A
N771        N807   1.333       .  A
N772        C801   1.331       .  A
N772        N782   1.310       .  A
H773        C798   1.079       .  S
N774        N795   1.309       .  A
N775        N793   1.324       .  A
N775        N780   1.339       .  A
C776        N780   1.369       .  A
C776        C804   1.443       .  S
C776       C1030   1.500       .  S
N777        C792   1.341       .  A
N777       Co799   2.089       .  S
C778        N806   1.338       .  A
C778        C781   1.445       .  S
C778        H812   1.075       .  S
C781        N802   1.359       .  A
C781       C1229   1.489       .  S
N782        N788   1.323       .  A
N783        C809   1.343       .  A
N783        N785   1.313       .  A
N783       Co799   2.083   1_565  S
N784        C798   1.346       .  A
N785        N813   1.331       .  A
N785       Co803   2.106   1_565  S
H786        C809   1.079       .  S
H787        C804   1.082       .  S
N789       Co803   2.058       .  S
N790        N802   1.329       .  A
N790        N806   1.312       .  A
N790       Co799   2.110   1_565  S
C791        N795   1.330       .  A
C791        C805   1.490       .  S
C791       C1072   1.489       .  S
C792        C811   1.465       .  S
C792        H796   1.079       .  S
N793        C804   1.325       .  A
N793       Co803   2.057   1_565  S
C797        N813   1.357       .  A
C797        C809   1.469       .  S
C797       C1089   1.507       .  S
Co799      Cl810   2.497       .  S
N800        C811   1.357       .  A
C801       C1044   1.487       .  S
Co803      Cl810   2.383       .  S
C811       C1103   1.504       .  S
C814        N832   1.363       .  A
C814        C851   1.437       .  S
C814       C1019   1.483       .  S
N815        N832   1.332       .  A
N815        N837   1.321       .  A
N815       Co852   2.129       .  S
C816        N841   1.349       .  A
C816        C854   1.466       .  S
C816        H861   1.079       .  S
H817        C858   1.077       .  S
C818        N842   1.342       .  A
C818        C822   1.452       .  S
C818        H847   1.079       .  S
Co819       N837   2.038       .  S
Co819       N827   2.075       .  S
Co819       N859   2.062   1_545  S
Co819       N835   2.066   1_545  S
Co819      Cl863   2.380       .  S
N820        C858   1.343       .  A
N820        N827   1.313       .  A
N820       Co821   2.089       .  S
Co821       N824   2.116       .  S
Co821       N841   2.111   1_545  S
Co821       N828   2.102   1_545  S
Co821      Cl863   2.499       .  S
C822        N860   1.358       .  A
C822       C1128   1.491       .  S
N823        N830   1.324       .  A
N823        N853   1.311       .  A
N823       Co856   2.057       .  S
N824        N842   1.316       .  A
N824        N860   1.329       .  A
N825        C854   1.342       .  A
N825        N835   1.326       .  A
H826        C851   1.080       .  S
N827        N848   1.329       .  A
N828        N846   1.314       .  A
N828        N833   1.328       .  A
C829        N833   1.354       .  A
C829        C857   1.456       .  S
C829       C1117   1.482       .  S
N830        C845   1.355       .  A
N830       Co852   2.120       .  S
C831        N859   1.328       .  A
C831        C834   1.438       .  S
C831        H865   1.082       .  S
C834        N855   1.361       .  A
C834        C991   1.475       .  S
N835        N841   1.317       .  A
N836        C862   1.356       .  A
N836        N838   1.324       .  A
N836       Co852   2.130   1_565  S
N837        C851   1.324       .  A
N838        N866   1.312       .  A
N838       Co856   2.052   1_565  S
H839        C862   1.081       .  S
H840        C857   1.080       .  S
N842       Co856   2.072       .  S
N843        N855   1.334       .  A
N843        N859   1.322       .  A
N843       Co852   2.114   1_565  S
C844        N848   1.349       .  A
C844        C858   1.467       .  S
C844       C1215   1.496       .  S
C845        C864   1.476       .  S
C845        H849   1.081       .  S
N846        C857   1.341       .  A
N846       Co856   2.072   1_565  S
C850        N866   1.332       .  A
C850        C862   1.478       .  S
C850        C977   1.471       .  S
Co852      Cl863   2.515       .  S
N853        C864   1.332       .  A
C854       C1201   1.488       .  S
Co856      Cl863   2.391       .  S
C864       C1005   1.467       .  S
C867        N885   1.366       .  A
C867        C904   1.448       .  S
C867       C1299   1.504       .  S
N868        N885   1.337       .  A
N868        N890   1.317       .  A
N868      Co2213   2.134       .  S
C869        N894   1.354       .  A
C869        C907   1.478       .  S
C869        H914   1.081       .  S
H870        C911   1.081       .  S
C871        N895   1.329       .  A
C871        C875   1.445       .  S
C871        H900   1.080       .  S
Co872       N890   2.065       .  S
Co872       N880   2.065       .  S
Co872       N912   2.054       .  S
Co872       N888   2.055       .  S
Co872     Cl2224   2.375   1_455  S
N873        C911   1.358       .  A
N873        N880   1.322       .  A
N873      Co2182   2.119   1_455  S
Co874      N2181   2.119       .  S
Co874       N877   2.123       .  S
Co874      N2202   2.117       .  S
Co874       N881   2.120       .  S
Co874      Cl916   2.523       .  S
C875        N913   1.360       .  A
C875       C1058   1.487       .  S
N876        N883   1.314       .  A
N876        N906   1.326       .  A
N876       Co909   2.076       .  S
N877        N895   1.326       .  A
N877        N913   1.332       .  A
N878        C907   1.331       .  A
N878        N888   1.311       .  A
H879        C904   1.078       .  S
N880        N901   1.313       .  A
N881        N899   1.320       .  A
N881        N886   1.334       .  A
C882        N886   1.363       .  A
C882        C910   1.442       .  S
C882       C1002   1.492       .  S
N883        C898   1.352       .  A
N883       Co905   2.113       .  S
C884        N912   1.340       .  A
C884        C887   1.448       .  S
C884        H918   1.080       .  S
C887        N908   1.356       .  A
C887       C1282   1.486       .  S
N888        N894   1.323       .  A
N889        C915   1.358       .  A
N889        N891   1.317       .  A
N889       Co905   2.128       .  S
N890        C904   1.334       .  A
N891        N919   1.324       .  A
N891       Co909   2.074       .  S
H892        C915   1.077       .  S
H893        C910   1.082       .  S
N894      Co2182   2.117   1_455  S
N895       Co909   2.061       .  S
N896        N908   1.331       .  A
N896        N912   1.312       .  A
N896      Co2213   2.118       .  S
C897        N901   1.334       .  A
C897        C911   1.479       .  S
C897       C1075   1.481       .  S
C898        C917   1.478       .  S
C898        H902   1.080       .  S
N899        C910   1.325       .  A
N899       Co909   2.050       .  S
C903        N919   1.345       .  A
C903        C915   1.475       .  S
C903       C1170   1.513       .  S
Co905      N2176   2.134       .  S
Co905      N2204   2.118       .  S
Co905      Cl916   2.507       .  S
N906        C917   1.350       .  A
C907       C1016   1.480       .  S
Co909      Cl916   2.376       .  S
Cl916     Co2180   2.375       .  S
C917       C1184   1.509       .  S
C920        N938   1.362       .  A
C920        C957   1.432       .  S
C920       C1047   1.471       .  S
N921        N938   1.335       .  A
N921        N943   1.323       .  A
N921       Co958   2.128   1_455  S
C922        N947   1.349       .  A
C922        C960   1.474       .  S
C922        H967   1.074       .  S
H923        C964   1.080       .  S
C924        N948   1.336       .  A
C924        C928   1.442       .  S
C924        H953   1.080       .  S
Co925       N943   2.041       .  S
Co925       N933   2.080       .  S
Co925       N965   2.050       .  S
Co925       N941   2.074       .  S
Co925     Cl2277   2.380   1_455  S
N926        C964   1.349       .  A
N926        N933   1.315       .  A
N926      Co2235   2.103   1_455  S
Co927      N2234   2.103       .  S
Co927       N930   2.093       .  S
Co927      N2255   2.097       .  S
Co927       N934   2.100       .  S
Co927      Cl969   2.499       .  S
C928        N966   1.348       .  A
C928       C1156   1.464       .  S
N929        N936   1.325       .  A
N929        N959   1.317       .  A
N929       Co962   2.062       .  S
N930        N948   1.318       .  A
N930        N966   1.327       .  A
N931        C960   1.348       .  A
N931        N941   1.323       .  A
H932        C957   1.082       .  S
N933        N954   1.326       .  A
N934        N952   1.314       .  A
N934        N939   1.328       .  A
C935        N939   1.353       .  A
C935        C963   1.446       .  S
C935       C1145   1.474       .  S
N936        C951   1.355       .  A
N936      Co2266   2.121       .  S
C937        N965   1.322       .  A
C937        C940   1.444       .  S
C937        H971   1.082       .  S
C940        N961   1.366       .  A
C940        C988   1.495       .  S
N941        N947   1.313       .  A
N942        C968   1.356       .  A
N942        N944   1.322       .  A
N942      Co2266   2.128       .  S
N943        C957   1.324       .  A
N944        N972   1.311       .  A
N944       Co962   2.048       .  S
H945        C968   1.079       .  S
H946        C963   1.080       .  S
N947      Co2235   2.097   1_455  S
N948       Co962   2.060       .  S
N949        N961   1.336       .  A
N949        N965   1.321       .  A
N949       Co958   2.133   1_455  S
C950        N954   1.349       .  A
C950        C964   1.467       .  S
C950       C1271   1.499       .  S
C951        C970   1.475       .  S
C951        H955   1.081       .  S
N952        C963   1.337       .  A
N952       Co962   2.058       .  S
C956        N972   1.335       .  A
C956        C968   1.488       .  S
C956        C974   1.493       .  S
Co958      N2244   2.121       .  S
Co958      N2250   2.128       .  S
Co958     Cl2277   2.525       .  S
N959        C970   1.334       .  A
C960       C1257   1.506       .  S
Co962      Cl969   2.383       .  S
Cl969     Co2233   2.380       .  S
Cl969     Co2266   2.525       .  S
C970       C1033   1.476       .  S
C973        H980   1.084       .  S
C973        C974   1.411       .  A
C973        C978   1.398       .  A
C974        C975   1.412       .  A
C975        C976   1.412       .  A
C975        N982   1.429       .  S
C976        H981   1.084       .  S
C976        C977   1.410       .  A
C977        C978   1.404       .  A
C978        N979   1.434       .  S
N979        O983   1.263       .  A
N979        O984   1.262       .  A
N982        O986   1.262       .  A
N982        O985   1.262       .  A
C987        H994   1.084       .  S
C987        C988   1.409       .  A
C987        C992   1.391       .  A
C988        C989   1.421       .  A
C989        C990   1.421       .  A
C989        N996   1.441       .  S
C990        H995   1.083       .  S
C990        C991   1.409       .  A
C991        C992   1.400       .  A
C992        N993   1.429       .  S
N993        O997   1.261       .  A
N993        O998   1.262       .  A
N996       O1000   1.263       .  A
N996        O999   1.262       .  A
C1001      H1008   1.080       .  S
C1001      C1002   1.408       .  A
C1001      C1006   1.394       .  A
C1002      C1003   1.416       .  A
C1003      C1004   1.413       .  A
C1003      N1010   1.431       .  S
C1004      H1009   1.084       .  S
C1004      C1005   1.407       .  A
C1005      C1006   1.402       .  A
C1006      N1007   1.432       .  S
N1007      O1011   1.262       .  A
N1007      O1012   1.262       .  A
N1010      O1014   1.262       .  A
N1010      O1013   1.262       .  A
C1015      H1022   1.084       .  S
C1015      C1016   1.391       .  A
C1015      C1020   1.402       .  A
C1016      C1017   1.427       .  A
C1017      C1018   1.398       .  A
C1017      N1024   1.434       .  S
C1018      H1023   1.084       .  S
C1018      C1019   1.389       .  A
C1019      C1020   1.429       .  A
C1020      N1021   1.433       .  S
N1021      O1025   1.263       .  A
N1021      O1026   1.261       .  A
N1024      O1028   1.259       .  A
N1024      O1027   1.263       .  A
C1029      H1036   1.078       .  S
C1029      C1030   1.411       .  A
C1029      C1034   1.397       .  A
C1030      C1031   1.413       .  A
C1031      C1032   1.415       .  A
C1031      N1038   1.428       .  S
C1032      H1037   1.084       .  S
C1032      C1033   1.411       .  A
C1033      C1034   1.402       .  A
C1034      N1035   1.434       .  S
N1035      O1039   1.262       .  A
N1035      O1040   1.262       .  A
N1038      O1042   1.262       .  A
N1038      O1041   1.262       .  A
C1043      H1050   1.083       .  S
C1043      C1044   1.402       .  A
C1043      C1048   1.409       .  A
C1044      C1045   1.424       .  A
C1045      C1046   1.398       .  A
C1045      N1052   1.436       .  S
C1046      H1051   1.084       .  S
C1046      C1047   1.392       .  A
C1047      C1048   1.413       .  A
C1048      N1049   1.425       .  S
N1049      O1053   1.262       .  A
N1049      O1054   1.260       .  A
N1052      O1056   1.263       .  A
N1052      O1055   1.263       .  A
C1057      H1064   1.084       .  S
C1057      C1058   1.395       .  A
C1057      C1062   1.400       .  A
C1058      C1059   1.428       .  A
C1059      C1060   1.404       .  A
C1059      N1066   1.435       .  S
C1060      H1065   1.084       .  S
C1060      C1061   1.392       .  A
C1061      C1062   1.420       .  A
C1062      N1063   1.433       .  S
N1063      O1067   1.262       .  A
N1063      O1068   1.261   1_545  A
N1066      O1070   1.261       .  A
N1066      O1069   1.263       .  A
C1071      H1078   1.085       .  S
C1071      C1072   1.406       .  A
C1071      C1076   1.392       .  A
C1072      C1073   1.413       .  A
C1073      C1074   1.420       .  A
C1073      N1080   1.428       .  S
C1074      H1079   1.083       .  S
C1074      C1075   1.413       .  A
C1075      C1076   1.404       .  A
C1076      N1077   1.429       .  S
N1077      O1081   1.260       .  A
N1077      O1082   1.262       .  A
N1080      O1084   1.262       .  A
N1080      O1083   1.262       .  A
C1085      H1092   1.083       .  S
C1085      C1086   1.409       .  A
C1085      C1090   1.412       .  A
C1086      C1087   1.417       .  A
C1087      C1088   1.406       .  A
C1087      N1094   1.422       .  S
C1088      H1093   1.080       .  S
C1088      C1089   1.402       .  A
C1089      C1090   1.415       .  A
C1090      N1091   1.425       .  S
N1091      O1095   1.261       .  A
N1091      O1096   1.262       .  A
N1094      O1097   1.259       .  A
C1099      H1106   1.081       .  S
C1099      C1100   1.403       .  A
C1099      C1104   1.404       .  A
C1100      C1101   1.421       .  A
C1101      C1102   1.418       .  A
C1101      N1108   1.431       .  S
C1102      H1107   1.083       .  S
C1102      C1103   1.407       .  A
C1103      C1104   1.408       .  A
C1104      N1105   1.425       .  S
N1105      O1109   1.258       .  A
N1105      O1110   1.262       .  A
N1108      O1112   1.262       .  A
N1108      O1111   1.262       .  A
C1113      H1120   1.083       .  S
C1113      C1114   1.400       .  A
C1113      C1118   1.408       .  A
C1114      C1115   1.417       .  A
C1115      C1116   1.406       .  A
C1115      N1122   1.435       .  S
C1116      H1121   1.084       .  S
C1116      C1117   1.401       .  A
C1117      C1118   1.419       .  A
C1118      N1119   1.438       .  S
N1119      O1123   1.262       .  A
N1119      O1124   1.261       .  A
C1127      H1134   1.084       .  S
C1127      C1128   1.402       .  A
C1127      C1132   1.402       .  A
C1128      C1129   1.414       .  A
C1129      C1130   1.409       .  A
C1129      N1136   1.430       .  S
C1130      H1135   1.083       .  S
C1130      C1131   1.409       .  A
C1131      C1132   1.407       .  A
C1132      N1133   1.420       .  S
N1133      O1138   1.259       .  A
N1136      O1140   1.262       .  A
N1136      O1139   1.262       .  A
C1141      H1148   1.084       .  S
C1141      C1142   1.414       .  A
C1141      C1146   1.402       .  A
C1142      C1143   1.405       .  A
C1143      C1144   1.408       .  A
C1143      N1150   1.428       .  S
C1144      H1149   1.084       .  S
C1144      C1145   1.410       .  A
C1145      C1146   1.406       .  A
C1146      N1147   1.441       .  S
N1147      O1151   1.262       .  A
N1147      O1152   1.263       .  A
N1150      O1154   1.262       .  A
N1150      O1153   1.262       .  A
C1155      H1162   1.085       .  S
C1155      C1156   1.384       .  A
C1155      C1160   1.388       .  A
C1156      C1157   1.417       .  A
C1157      C1158   1.412       .  A
C1157      N1164   1.436       .  S
C1158      H1163   1.083       .  S
C1158      C1159   1.403       .  A
C1159      C1160   1.429       .  A
C1160      N1161   1.427       .  S
N1161      O1165   1.257       .  A
N1161      O1166   1.263       .  A
N1164      O1168   1.262       .  A
N1164      O1167   1.262       .  A
C1169      H1176   1.066       .  S
C1169      C1170   1.410       .  A
C1169      C1174   1.419       .  A
C1170      C1171   1.419       .  A
C1171      C1172   1.400       .  A
C1171      N1178   1.425       .  S
C1172      H1177   1.085       .  S
C1172      C1173   1.398       .  A
C1173      C1174   1.413       .  A
C1174      N1175   1.432       .  S
N1175      O1179   1.261       .  A
N1175      O1180   1.261       .  A
N1178      O1182   1.262       .  A
N1178      O1181   1.262       .  A
C1183      H1190   1.081       .  S
C1183      C1184   1.407       .  A
C1183      C1188   1.417       .  A
C1184      C1185   1.419       .  A
C1185      C1186   1.405       .  A
C1185      N1192   1.427       .  S
C1186      H1191   1.084       .  S
C1186      C1187   1.402       .  A
C1187      C1188   1.415       .  A
C1188      N1189   1.436       .  S
N1189      O1193   1.261       .  A
N1189      O1194   1.262       .  A
N1192      O1196   1.262       .  A
N1192      O1195   1.262       .  A
C1197      H1204   1.083       .  S
C1197      C1198   1.404       .  A
C1197      C1202   1.401       .  A
C1198      C1199   1.415       .  A
C1199      C1200   1.414       .  A
C1199      N1206   1.431       .  S
C1200      H1205   1.083       .  S
C1200      C1201   1.406       .  A
C1201      C1202   1.398       .  A
N1203      O1207   1.263       .  A
N1203      O1208   1.259       .  A
N1206      O1210   1.262       .  A
N1206      O1209   1.262       .  A
C1211      H1218   1.083       .  S
C1211      C1212   1.402       .  A
C1211      C1216   1.403       .  A
C1212      C1213   1.415       .  A
C1213      C1214   1.410       .  A
C1213      N1220   1.428       .  S
C1214      H1219   1.084       .  S
C1214      C1215   1.406       .  A
C1215      C1216   1.410       .  A
N1217      O1221   1.262       .  A
N1217      O1222   1.261       .  A
N1220      O1224   1.262       .  A
N1220      O1223   1.261       .  A
C1225      H1232   1.084       .  S
C1225      C1226   1.406       .  A
C1225      C1230   1.402       .  A
C1226      C1227   1.421       .  A
C1227      C1228   1.415       .  A
C1227      N1234   1.446       .  S
C1228      H1233   1.084       .  S
C1228      C1229   1.406       .  A
C1229      C1230   1.410       .  A
C1230      N1231   1.434       .  S
N1231      O1235   1.261       .  A
N1231      O1236   1.262       .  A
N1234      O1238   1.263       .  A
N1234      O1237   1.262       .  A
C1239      H1246   1.084       .  S
C1239      C1240   1.407       .  A
C1239      C1244   1.404       .  A
C1240      C1241   1.420       .  A
C1241      C1242   1.415       .  A
C1241      N1248   1.445       .  S
C1242      H1247   1.083       .  S
C1242      C1243   1.404       .  A
C1243      C1244   1.407       .  A
C1244      N1245   1.432       .  S
N1245      O1250   1.262       .  A
N1248      O1252   1.263       .  A
N1248      O1251   1.262       .  A
C1253      H1260   1.083       .  S
C1253      C1254   1.401       .  A
C1253      C1258   1.411       .  A
C1254      C1255   1.411       .  A
C1255      C1256   1.402       .  A
C1255      N1262   1.431       .  S
C1256      H1261   1.083       .  S
C1256      C1257   1.408       .  A
C1257      C1258   1.418       .  A
C1258      N1259   1.421       .  S
N1259      O1263   1.259       .  A
N1259      O1264   1.259   1_455  A
N1262      O1266   1.262       .  A
N1262      O1265   1.262       .  A
C1267      H1274   1.084       .  S
C1267      C1268   1.401       .  A
C1267      C1272   1.407       .  A
C1268      C1269   1.412       .  A
C1269      C1270   1.405       .  A
C1269      N1276   1.421       .  S
C1270      H1275   1.082       .  S
C1270      C1271   1.401       .  A
C1271      C1272   1.417       .  A
C1272      N1273   1.426       .  S
N1273      O1277   1.262       .  A
N1273      O1278   1.262       .  A
N1276      O1280   1.261       .  A
N1276      O1279   1.259       .  A
C1281      H1288   1.084       .  S
C1281      C1282   1.410       .  A
C1281      C1286   1.411       .  A
C1282      C1283   1.408       .  A
C1283      C1284   1.405       .  A
C1283      N1290   1.437       .  S
C1284      H1289   1.084       .  S
C1284      C1285   1.415       .  A
C1285      C1286   1.408       .  A
C1286      N1287   1.428       .  S
N1287      O2599   1.262       .  A
N1287      O1292   1.262       .  A
N1290      O1294   1.263       .  A
N1290      O1293   1.262       .  A
O1291      N2595   1.262       .  A
C1295      H1302   1.083       .  S
C1295      C1296   1.402       .  A
C1295      C1300   1.411       .  A
C1296      C1297   1.421       .  A
C1297      C1298   1.405       .  A
C1297      N1304   1.440       .  S
C1298      H1303   1.082       .  S
C1298      C1299   1.401       .  A
C1299      C1300   1.410       .  A
C1300      N1301   1.413       .  S
N1301      O1305   1.260       .  A
N1301      O2614   1.261   1_455  A
N1304      O1308   1.262       .  A
N1304      O1307   1.263       .  A
O1306      N2609   1.261       .  A
C1309      N1327   1.357       .  A
C1309      C1346   1.453       .  S
C1309      C1894   1.486       .  S
N1310      N1327   1.330       .  A
N1310      N1332   1.312       .  A
N1310     Co2001   2.105       .  S
C1311      N1336   1.355       .  A
C1311      C1349   1.484       .  S
C1311      H1356   1.081       .  S
H1312      C1353   1.081       .  S
C1313      N1337   1.326       .  A
C1313      C1317   1.445       .  S
C1313      H1342   1.082       .  S
Co1314     N1332   2.071       .  S
Co1314     N1322   2.063       .  S
Co1314     N1354   2.072       .  S
Co1314     N1330   2.065       .  S
Co1314    Cl1358   2.388       .  S
N1315      C1353   1.362       .  A
N1315      N1322   1.323       .  A
N1315     Co1316   2.147       .  S
Co1316     N1973   2.143   1_554  S
Co1316     N1336   2.134       .  S
Co1316     N1977   2.130   1_554  S
Co1316    Cl1358   2.537       .  S
C1317      N1355   1.370       .  A
C1317      C1939   1.498       .  S
N1318      N1325   1.316       .  A
N1318      N1348   1.326       .  A
N1318     Co1351   2.072       .  S
N1319      N1337   1.319       .  A
N1319      N1355   1.338       .  A
N1319     Co1970   2.142       .  S
N1320      C1349   1.338       .  A
N1320      N1330   1.317       .  A
H1321      C1346   1.078       .  S
N1322      N1343   1.311       .  A
N1323      N1341   1.323       .  A
N1323      N1328   1.334       .  A
N1323     Co1970   2.130       .  S
C1324      N1328   1.365       .  A
C1324      C1352   1.447       .  S
C1324      C1908   1.487       .  S
N1325      C1340   1.344       .  A
N1325     Co1347   2.098       .  S
C1326      N1354   1.339       .  A
C1326      C1329   1.455       .  S
C1326      H1360   1.080       .  S
C1329      N1350   1.358       .  A
C1329      C1880   1.488       .  S
N1330      N1336   1.322       .  A
N1331      C1357   1.343       .  A
N1331      N1333   1.313       .  A
N1331     Co1347   2.095       .  S
N1332      C1346   1.339       .  A
N1333      N1361   1.329       .  A
N1333     Co1351   2.078       .  S
H1334      C1357   1.047       .  S
H1335      C1352   1.082       .  S
N1337     Co1351   2.056       .  S
N1338      N1350   1.330       .  A
N1338      N1354   1.316       .  A
N1338     Co2001   2.116       .  S
C1339      N1343   1.334       .  A
C1339      C1353   1.492       .  S
C1339      C1950   1.493       .  S
C1340      C1359   1.468       .  S
C1340      H1344   1.078       .  S
N1341      C1352   1.329       .  A
N1341     Co1351   2.071       .  S
C1345      N1361   1.351       .  A
C1345      C1357   1.467       .  S
C1345      C1852   1.491       .  S
Co1347     N1964   2.106       .  S
Co1347     N1992   2.116       .  S
Co1347    Cl2012   2.492       .  S
N1348      C1359   1.346       .  A
C1349      C1922   1.487       .  S
Co1351    Cl2012   2.383       .  S
Cl1358    Co2001   2.492       .  S
Cl1358    Co2005   2.382   1_554  S
C1359      C1866   1.494       .  S
C1362      N1380   1.363       .  A
C1362      C1399   1.452       .  S
C1362      C1841   1.495       .  S
N1363      N1380   1.332       .  A
N1363      N1385   1.321       .  A
N1363     Co1400   2.115       .  S
C1364      N1389   1.347       .  A
C1364      C1402   1.473       .  S
C1364      H1409   1.066       .  S
H1365      C1406   1.077       .  S
C1366      N1390   1.342       .  A
C1366      C1370   1.456       .  S
C1366      H1395   1.079       .  S
Co1367     N1385   2.089       .  S
Co1367     N1375   2.080       .  S
Co1367     N1407   2.063       .  S
Co1367     N1383   2.092       .  S
Co1367    Cl1411   2.376   1_554  S
N1368      C1406   1.347       .  A
N1368      N1375   1.315       .  A
N1368     Co2023   2.109   1_554  S
Co1369     N2022   2.110       .  S
Co1369     N1372   2.114       .  S
Co1369     N2043   2.106       .  S
Co1369     N1376   2.108       .  S
Co1369    Cl2065   2.496       .  S
C1370      N1408   1.358       .  A
C1370      C1785   1.497       .  S
N1371      N1378   1.321       .  A
N1371      N1401   1.314       .  A
N1371     Co1404   2.071       .  S
N1372      N1390   1.317       .  A
N1372      N1408   1.329       .  A
N1373      C1402   1.354       .  A
N1373      N1383   1.329       .  A
H1374      C1399   1.081       .  S
N1375      N1396   1.328       .  A
N1376      N1394   1.312       .  A
N1376      N1381   1.329       .  A
C1377      N1381   1.355       .  A
C1377      C1405   1.452       .  S
C1377      C1768   1.483       .  S
N1378      C1393   1.358       .  A
N1378     Co2054   2.111       .  S
C1379      N1407   1.326       .  A
C1379      C1382   1.445       .  S
C1379      H1413   1.077       .  S
C1382      N1403   1.365       .  A
C1382      C1813   1.492       .  S
N1383      N1389   1.313       .  A
N1384      C1410   1.355       .  A
N1384      N1386   1.321       .  A
N1384     Co2054   2.123       .  S
N1385      C1399   1.334       .  A
N1386      N1414   1.312       .  A
N1386     Co1404   2.076       .  S
H1387      C1410   1.081       .  S
H1388      C1405   1.080       .  S
N1389     Co2023   2.106   1_554  S
N1390     Co1404   2.079       .  S
N1391      N1403   1.332       .  A
N1391      N1407   1.318       .  A
N1391     Co1400   2.122       .  S
C1392      N1396   1.350       .  A
C1392      C1406   1.473       .  S
C1392      C1754   1.504       .  S
C1393      C1412   1.481       .  S
C1393      H1397   1.081       .  S
N1394      C1405   1.340       .  A
N1394     Co1404   2.063       .  S
C1398      N1414   1.338       .  A
C1398      C1410   1.483       .  S
C1398      C1796   1.487       .  S
Co1400     N2032   2.111   1_554  S
Co1400     N2038   2.122   1_554  S
Co1400    Cl1411   2.539   1_554  S
N1401      C1412   1.336       .  A
C1402      C1740   1.514       .  S
Co1404    Cl2065   2.372       .  S
Cl1411    Co2023   2.496       .  S
Cl1411    Co2058   2.371       .  S
C1412      C1827   1.483       .  S
C1415      N1433   1.353       .  A
C1415      C1452   1.452       .  S
C1415      C1897   1.484       .  S
N1416      N1433   1.324       .  A
N1416      N1438   1.313       .  A
N1416     Co1453   2.105       .  S
C1417      N1442   1.359       .  A
C1417      C1455   1.487       .  S
C1417      H1462   1.081       .  S
H1418      C1459   1.081       .  S
C1419      N1443   1.326       .  A
C1419      C1423   1.441       .  S
C1419      H1448   1.082       .  S
Co1420     N1438   2.061       .  S
Co1420     N1428   2.038       .  S
Co1420     N1460   2.054   1_545  S
Co1420     N1436   2.056   1_545  S
Co1420    Cl1464   2.393       .  S
N1421      C1459   1.364       .  A
N1421      N1428   1.322       .  A
N1421     Co1422   2.146   1_545  S
Co1422     N1425   2.128   1_565  S
Co1422     N1442   2.132       .  S
Co1422     N1429   2.150       .  S
Co1422    Cl1464   2.521   1_565  S
C1423      N1461   1.361       .  A
C1423      C1715   1.479       .  S
N1424      N1431   1.314       .  A
N1424      N1454   1.334       .  A
N1424     Co1457   2.102       .  S
N1425      N1443   1.326       .  A
N1425      N1461   1.333       .  A
N1426      C1455   1.331       .  A
N1426      N1436   1.310       .  A
H1427      C1452   1.079       .  S
N1428      N1449   1.309       .  A
N1429      N1447   1.324       .  A
N1429      N1434   1.339       .  A
C1430      N1434   1.369       .  A
C1430      C1458   1.443       .  S
C1430      C1684   1.500       .  S
N1431      C1446   1.341       .  A
N1431     Co1453   2.088       .  S
C1432      N1460   1.338       .  A
C1432      C1435   1.445       .  S
C1432      H1466   1.074       .  S
C1435      N1456   1.359       .  A
C1435      C1883   1.488       .  S
N1436      N1442   1.323       .  A
N1437      C1463   1.343       .  A
N1437      N1439   1.313       .  A
N1437     Co1453   2.083   1_565  S
N1438      C1452   1.346       .  A
N1439      N1467   1.331       .  A
N1439     Co1457   2.105   1_565  S
H1440      C1463   1.079       .  S
H1441      C1458   1.082       .  S
N1443     Co1457   2.058       .  S
N1444      N1456   1.329       .  A
N1444      N1460   1.312       .  A
N1444     Co1453   2.110   1_565  S
C1445      N1449   1.330       .  A
C1445      C1459   1.489       .  S
C1445      C1726   1.489       .  S
C1446      C1465   1.465       .  S
C1446      H1450   1.079       .  S
N1447      C1458   1.325       .  A
N1447     Co1457   2.057   1_565  S
C1451      N1467   1.357       .  A
C1451      C1463   1.469       .  S
C1451      C1743   1.507       .  S
Co1453    Cl1464   2.496       .  S
N1454      C1465   1.357       .  A
C1455      C1698   1.488       .  S
Co1457    Cl1464   2.383       .  S
C1465      C1757   1.504       .  S
C1468      N1486   1.363       .  A
C1468      C1505   1.438       .  S
C1468      C1673   1.483       .  S
N1469      N1486   1.332       .  A
N1469      N1491   1.321       .  A
N1469     Co1506   2.129       .  S
C1470      N1495   1.349       .  A
C1470      C1508   1.467       .  S
C1470      H1515   1.079       .  S
H1471      C1512   1.077       .  S
C1472      N1496   1.342       .  A
C1472      C1476   1.452       .  S
C1472      H1501   1.079       .  S
Co1473     N1491   2.038       .  S
Co1473     N1481   2.075       .  S
Co1473     N1513   2.060   1_545  S
Co1473     N1489   2.066   1_545  S
Co1473    Cl1517   2.380       .  S
N1474      C1512   1.342       .  A
N1474      N1481   1.313       .  A
N1474     Co1475   2.088       .  S
Co1475     N1478   2.117       .  S
Co1475     N1495   2.111   1_545  S
Co1475     N1482   2.101   1_545  S
Co1475    Cl1517   2.498       .  S
C1476      N1514   1.358       .  A
C1476      C1782   1.491       .  S
N1477      N1484   1.324       .  A
N1477      N1507   1.311       .  A
N1477     Co1510   2.057       .  S
N1478      N1496   1.316       .  A
N1478      N1514   1.329       .  A
N1479      C1508   1.342       .  A
N1479      N1489   1.326       .  A
H1480      C1505   1.080       .  S
N1481      N1502   1.328       .  A
N1482      N1500   1.314       .  A
N1482      N1487   1.328       .  A
C1483      N1487   1.354       .  A
C1483      C1511   1.456       .  S
C1483      C1771   1.482       .  S
N1484      C1499   1.355       .  A
N1484     Co1506   2.120       .  S
C1485      N1513   1.328       .  A
C1485      C1488   1.437       .  S
C1485      H1519   1.082       .  S
C1488      N1509   1.361       .  A
C1488      C1645   1.475       .  S
N1489      N1495   1.317       .  A
N1490      C1516   1.356       .  A
N1490      N1492   1.324       .  A
N1490     Co1506   2.130   1_565  S
N1491      C1505   1.325       .  A
N1492      N1520   1.312       .  A
N1492     Co1510   2.052   1_565  S
H1493      C1516   1.081       .  S
H1494      C1511   1.080       .  S
N1496     Co1510   2.071       .  S
N1497      N1509   1.334       .  A
N1497      N1513   1.322       .  A
N1497     Co1506   2.114   1_565  S
C1498      N1502   1.349       .  A
C1498      C1512   1.467       .  S
C1498      C1869   1.495       .  S
C1499      C1518   1.476       .  S
C1499      H1503   1.081       .  S
N1500      C1511   1.341       .  A
N1500     Co1510   2.071   1_565  S
C1504      N1520   1.332       .  A
C1504      C1516   1.478       .  S
C1504      C1631   1.471       .  S
Co1506    Cl1517   2.515       .  S
N1507      C1518   1.332       .  A
C1508      C1855   1.488       .  S
Co1510    Cl1517   2.391       .  S
C1518      C1659   1.467       .  S
C1521      N1539   1.366       .  A
C1521      C1558   1.449       .  S
C1521      C1953   1.504       .  S
N1522      N1539   1.337       .  A
N1522      N1544   1.317       .  A
C1523      N1548   1.354       .  A
C1523      C1561   1.478       .  S
C1523      H1568   1.081       .  S
H1524      C1565   1.081       .  S
C1525      N1549   1.329       .  A
C1525      C1529   1.444       .  S
C1525      H1554   1.080       .  S
Co1526     N1544   2.065       .  S
Co1526     N1534   2.065       .  S
Co1526     N1566   2.054       .  S
Co1526     N1542   2.056       .  S
N1527      C1565   1.359       .  A
N1527      N1534   1.322       .  A
Co1528     N1531   2.123       .  S
Co1528     N1535   2.120       .  S
Co1528    Cl1570   2.523       .  S
C1529      N1567   1.360       .  A
C1529      C1712   1.487       .  S
N1530      N1537   1.314       .  A
N1530      N1560   1.326       .  A
N1530     Co1563   2.076       .  S
N1531      N1549   1.326       .  A
N1531      N1567   1.332       .  A
N1532      C1561   1.331       .  A
N1532      N1542   1.311       .  A
H1533      C1558   1.078       .  S
N1534      N1555   1.313       .  A
N1535      N1553   1.320       .  A
N1535      N1540   1.334       .  A
C1536      N1540   1.363       .  A
C1536      C1564   1.442       .  S
C1536      C1656   1.492       .  S
N1537      C1552   1.352       .  A
N1537     Co1559   2.112   1_655  S
C1538      N1566   1.340       .  A
C1538      C1541   1.448       .  S
C1538      H1572   1.080       .  S
C1541      N1562   1.356       .  A
C1541      C1936   1.485       .  S
N1542      N1548   1.323       .  A
N1543      C1569   1.358       .  A
N1543      N1545   1.317       .  A
N1543     Co1559   2.128   1_655  S
N1544      C1558   1.335       .  A
N1545      N1573   1.324       .  A
N1545     Co1563   2.074       .  S
H1546      C1569   1.077       .  S
H1547      C1564   1.082       .  S
N1549     Co1563   2.060       .  S
N1550      N1562   1.331       .  A
N1550      N1566   1.312       .  A
C1551      N1555   1.334       .  A
C1551      C1565   1.480       .  S
C1551      C1729   1.482       .  S
C1552      C1571   1.478       .  S
C1552      H1556   1.080       .  S
N1553      C1564   1.325       .  A
N1553     Co1563   2.050       .  S
C1557      N1573   1.345       .  A
C1557      C1569   1.475       .  S
C1557      C1824   1.513       .  S
Co1559    Cl1570   2.507   1_455  S
N1560      C1571   1.350       .  A
C1561      C1670   1.480       .  S
Co1563    Cl1570   2.376       .  S
C1571      C1838   1.510       .  S
C1574      N1592   1.362       .  A
C1574      C1611   1.432       .  S
C1574      C1701   1.471       .  S
N1575      N1592   1.335       .  A
N1575      N1597   1.323       .  A
N1575     Co1612   2.128       .  S
C1576      N1601   1.349       .  A
C1576      C1614   1.474       .  S
C1576      H1621   1.074       .  S
H1577      C1618   1.080       .  S
C1578      N1602   1.336       .  A
C1578      C1582   1.442       .  S
C1578      H1607   1.080       .  S
Co1579     N1597   2.041       .  S
Co1579     N1587   2.080       .  S
Co1579     N1619   2.049       .  S
Co1579     N1595   2.075       .  S
N1580      C1618   1.349       .  A
N1580      N1587   1.315       .  A
Co1581     N1584   2.092       .  S
Co1581     N1588   2.101       .  S
Co1581    Cl1623   2.500       .  S
C1582      N1620   1.348       .  A
C1582      C1810   1.464       .  S
N1583      N1590   1.325       .  A
N1583      N1613   1.316       .  A
N1583     Co1616   2.061       .  S
N1584      N1602   1.318       .  A
N1584      N1620   1.327       .  A
N1585      C1614   1.349       .  A
N1585      N1595   1.323       .  A
H1586      C1611   1.082       .  S
N1587      N1608   1.326       .  A
N1588      N1606   1.314       .  A
N1588      N1593   1.328       .  A
C1589      N1593   1.353       .  A
C1589      C1617   1.446       .  S
C1589      C1799   1.474       .  S
N1590      C1605   1.355       .  A
C1591      N1619   1.322       .  A
C1591      C1594   1.444       .  S
C1591      H1625   1.082       .  S
C1594      N1615   1.366       .  A
C1594      C1642   1.495       .  S
N1595      N1601   1.313       .  A
N1596      C1622   1.356       .  A
N1596      N1598   1.321       .  A
N1597      C1611   1.324       .  A
N1598      N1626   1.311       .  A
N1598     Co1616   2.048       .  S
H1599      C1622   1.079       .  S
H1600      C1617   1.080       .  S
N1602     Co1616   2.060       .  S
N1603      N1615   1.336       .  A
N1603      N1619   1.321       .  A
N1603     Co1612   2.133       .  S
C1604      N1608   1.349       .  A
C1604      C1618   1.467       .  S
C1604      C1925   1.499       .  S
C1605      C1624   1.475       .  S
C1605      H1609   1.081       .  S
N1606      C1617   1.337       .  A
N1606     Co1616   2.058       .  S
C1610      N1626   1.335       .  A
C1610      C1622   1.487       .  S
C1610      C1628   1.493       .  S
N1613      C1624   1.334       .  A
C1614      C1911   1.506       .  S
Co1616    Cl1623   2.383       .  S
C1624      C1687   1.476       .  S
C1627      H1634   1.084       .  S
C1627      C1628   1.411       .  A
C1627      C1632   1.398       .  A
C1628      C1629   1.412       .  A
C1629      C1630   1.412       .  A
C1629      N1636   1.429       .  S
C1630      H1635   1.084       .  S
C1630      C1631   1.410       .  A
C1631      C1632   1.404       .  A
C1632      N1633   1.434       .  S
N1633      O1637   1.263       .  A
N1633      O1638   1.262       .  A
N1636      O1640   1.262       .  A
N1636      O1639   1.262       .  A
C1641      H1648   1.084       .  S
C1641      C1642   1.409       .  A
C1641      C1646   1.391       .  A
C1642      C1643   1.421       .  A
C1643      C1644   1.421       .  A
C1643      N1650   1.441       .  S
C1644      H1649   1.083       .  S
C1644      C1645   1.410       .  A
C1645      C1646   1.400       .  A
C1646      N1647   1.429       .  S
N1647      O1651   1.261       .  A
N1647      O1652   1.262       .  A
N1650      O1654   1.263       .  A
N1650      O1653   1.262       .  A
C1655      H1662   1.080       .  S
C1655      C1656   1.408       .  A
C1655      C1660   1.394       .  A
C1656      C1657   1.416       .  A
C1657      C1658   1.413       .  A
C1657      N1664   1.432       .  S
C1658      H1663   1.084       .  S
C1658      C1659   1.407       .  A
C1659      C1660   1.402       .  A
C1660      N1661   1.431       .  S
N1661      O1665   1.262       .  A
N1661      O1666   1.262       .  A
N1664      O1668   1.262       .  A
N1664      O1667   1.262       .  A
C1669      H1676   1.084       .  S
C1669      C1670   1.391       .  A
C1669      C1674   1.403       .  A
C1670      C1671   1.427       .  A
C1671      C1672   1.398       .  A
C1671      N1678   1.434       .  S
C1672      H1677   1.084       .  S
C1672      C1673   1.390       .  A
C1673      C1674   1.429       .  A
C1674      N1675   1.434       .  S
N1675      O1679   1.263       .  A
N1675      O1680   1.261       .  A
N1678      O1682   1.259       .  A
N1678      O1681   1.263       .  A
C1683      H1690   1.078       .  S
C1683      C1684   1.411       .  A
C1683      C1688   1.397       .  A
C1684      C1685   1.413       .  A
C1685      C1686   1.415       .  A
C1685      N1692   1.428       .  S
C1686      H1691   1.083       .  S
C1686      C1687   1.411       .  A
C1687      C1688   1.402       .  A
C1688      N1689   1.434       .  S
N1689      O1693   1.262       .  A
N1689      O1694   1.262       .  A
N1692      O1696   1.262       .  A
N1692      O1695   1.262       .  A
C1697      H1704   1.083       .  S
C1697      C1698   1.402       .  A
C1697      C1702   1.409       .  A
C1698      C1699   1.424       .  A
C1699      C1700   1.398       .  A
C1699      N1706   1.435       .  S
C1700      H1705   1.084       .  S
C1700      C1701   1.392       .  A
C1701      C1702   1.413       .  A
C1702      N1703   1.425       .  S
N1703      O1707   1.262       .  A
N1703      O1708   1.260       .  A
N1706      O1710   1.263       .  A
N1706      O1709   1.263       .  A
C1711      H1718   1.084       .  S
C1711      C1712   1.395       .  A
C1711      C1716   1.400       .  A
C1712      C1713   1.428       .  A
C1713      C1714   1.404       .  A
C1713      N1720   1.435       .  S
C1714      H1719   1.084       .  S
C1714      C1715   1.392       .  A
C1715      C1716   1.420       .  A
C1716      N1717   1.433       .  S
N1717      O1721   1.262       .  A
N1717      O1722   1.261   1_545  A
N1720      O1724   1.261       .  A
N1720      O1723   1.263       .  A
C1725      H1732   1.085       .  S
C1725      C1726   1.405       .  A
C1725      C1730   1.392       .  A
C1726      C1727   1.413       .  A
C1727      C1728   1.420       .  A
C1727      N1734   1.428       .  S
C1728      H1733   1.083       .  S
C1728      C1729   1.413       .  A
C1729      C1730   1.404       .  A
C1730      N1731   1.429       .  S
N1731      O1735   1.260       .  A
N1731      O1736   1.262       .  A
N1734      O1738   1.262       .  A
N1734      O1737   1.262       .  A
C1739      H1746   1.083       .  S
C1739      C1740   1.408       .  A
C1739      C1744   1.412       .  A
C1740      C1741   1.417       .  A
C1741      C1742   1.406       .  A
C1741      N1748   1.422       .  S
C1742      H1747   1.080       .  S
C1742      C1743   1.402       .  A
C1743      C1744   1.415       .  A
C1744      N1745   1.425       .  S
N1745      O1749   1.261       .  A
N1745      O1750   1.262       .  A
N1748      O2406   1.261   1_554  A
N1748      O1751   1.259       .  A
O1752      N2402   1.261       .  A
C1753      H1760   1.081       .  S
C1753      C1754   1.403       .  A
C1753      C1758   1.404       .  A
C1754      C1755   1.421       .  A
C1755      C1756   1.418       .  A
C1755      N1762   1.431       .  S
C1756      H1761   1.083       .  S
C1756      C1757   1.407       .  A
C1757      C1758   1.408       .  A
C1758      N1759   1.425       .  S
N1759      O1763   1.258   1_554  A
N1759      O1764   1.262       .  A
N1762      O1766   1.262       .  A
N1762      O1765   1.262       .  A
C1767      H1774   1.082       .  S
C1767      C1768   1.400       .  A
C1767      C1772   1.408       .  A
C1768      C1769   1.417       .  A
C1769      C1770   1.406       .  A
C1769      N1776   1.435       .  S
C1770      H1775   1.084       .  S
C1770      C1771   1.400       .  A
C1771      C1772   1.419       .  A
C1772      N1773   1.438       .  S
N1773      O1777   1.262       .  A
N1773      O1778   1.261       .  A
N1776      O2434   1.261       .  A
N1776      O2433   1.262       .  A
O1779      N2430   1.262       .  A
O1780      N2430   1.261       .  A
C1781      H1788   1.084       .  S
C1781      C1782   1.402       .  A
C1781      C1786   1.402       .  A
C1782      C1783   1.413       .  A
C1783      C1784   1.409       .  A
C1783      N1790   1.430       .  S
C1784      H1789   1.083       .  S
C1784      C1785   1.408       .  A
C1785      C1786   1.407       .  A
C1786      N1787   1.419       .  S
N1787      O2445   1.261       .  A
N1787      O1792   1.259       .  A
N1790      O1794   1.262       .  A
N1790      O1793   1.262       .  A
O1791      N2441   1.261       .  A
C1795      H1802   1.084       .  S
C1795      C1796   1.414       .  A
C1795      C1800   1.402       .  A
C1796      C1797   1.405       .  A
C1797      C1798   1.408       .  A
C1797      N1804   1.429       .  S
C1798      H1803   1.084       .  S
C1798      C1799   1.410       .  A
C1799      C1800   1.406       .  A
C1800      N1801   1.440       .  S
N1801      O1805   1.262       .  A
N1801      O1806   1.263       .  A
N1804      O1808   1.262       .  A
N1804      O1807   1.262       .  A
C1809      H1816   1.085       .  S
C1809      C1810   1.384       .  A
C1809      C1814   1.388       .  A
C1810      C1811   1.417       .  A
C1811      C1812   1.412       .  A
C1811      N1818   1.436       .  S
C1812      H1817   1.083       .  S
C1812      C1813   1.403       .  A
C1813      C1814   1.429       .  A
C1814      N1815   1.427       .  S
N1815      O1819   1.257       .  A
N1815      O1820   1.263       .  A
N1818      O1822   1.262       .  A
N1818      O1821   1.262       .  A
C1823      H1830   1.069       .  S
C1823      C1824   1.410       .  A
C1823      C1828   1.419       .  A
C1824      C1825   1.419       .  A
C1825      C1826   1.400       .  A
C1825      N1832   1.425       .  S
C1826      H1831   1.085       .  S
C1826      C1827   1.398       .  A
C1827      C1828   1.413       .  A
C1828      N1829   1.432       .  S
N1829      O1833   1.261   1_655  A
N1829      O1834   1.261       .  A
N1832      O1836   1.262       .  A
N1832      O1835   1.262       .  A
C1837      H1844   1.081       .  S
C1837      C1838   1.408       .  A
C1837      C1842   1.417       .  A
C1838      C1839   1.419       .  A
C1839      C1840   1.405       .  A
C1839      N1846   1.427       .  S
C1840      H1845   1.084       .  S
C1840      C1841   1.402       .  A
C1841      C1842   1.415       .  A
C1842      N1843   1.435       .  S
N1843      O1847   1.261       .  A
N1843      O1848   1.262       .  A
N1846      O1850   1.262       .  A
N1846      O1849   1.262       .  A
C1851      H1858   1.084       .  S
C1851      C1852   1.404       .  A
C1851      C1856   1.401       .  A
C1852      C1853   1.415       .  A
C1853      C1854   1.414       .  A
C1853      N1860   1.431       .  S
C1854      H1859   1.083       .  S
C1854      C1855   1.406       .  A
C1855      C1856   1.398       .  A
C1856      N2511   1.419       .  S
N1857      C2510   1.419       .  S
N1857      O1861   1.263       .  A
N1857      O1862   1.259   1_556  A
N1860      O1864   1.262       .  A
N1860      O1863   1.262       .  A
C1865      H1872   1.083       .  S
C1865      C1866   1.402       .  A
C1865      C1870   1.403       .  A
C1866      C1867   1.415       .  A
C1867      C1868   1.410       .  A
C1867      N1874   1.428       .  S
C1868      H1873   1.084       .  S
C1868      C1869   1.406       .  A
C1869      C1870   1.410       .  A
C1870      N2525   1.427       .  S
N1871      C2524   1.427   1_554  S
N1871      O1875   1.262       .  A
N1871      O1876   1.261       .  A
N1874      O1878   1.262       .  A
N1874      O1877   1.261       .  A
C1879      H1886   1.084       .  S
C1879      C1880   1.406       .  A
C1879      C1884   1.402       .  A
C1880      C1881   1.421       .  A
C1881      C1882   1.415       .  A
C1881      N1888   1.445       .  S
C1882      H1887   1.084       .  S
C1882      C1883   1.406       .  A
C1883      C1884   1.410       .  A
C1884      N1885   1.434       .  S
N1885      O1889   1.261       .  A
N1885      O1890   1.262       .  A
N1888      O1892   1.263       .  A
N1888      O1891   1.262       .  A
C1893      H1900   1.084       .  S
C1893      C1894   1.407       .  A
C1893      C1898   1.404       .  A
C1894      C1895   1.420       .  A
C1895      C1896   1.415       .  A
C1895      N1902   1.445       .  S
C1896      H1901   1.083       .  S
C1896      C1897   1.404       .  A
C1897      C1898   1.407       .  A
C1898      N1899   1.433       .  S
N1899      O2557   1.262       .  A
N1899      O1904   1.262       .  A
N1902      O1906   1.263       .  A
N1902      O1905   1.262       .  A
O1903      N2553   1.262       .  A
C1907      H1914   1.083       .  S
C1907      C1908   1.401       .  A
C1907      C1912   1.411       .  A
C1908      C1909   1.411       .  A
C1909      C1910   1.401       .  A
C1909      N1916   1.430       .  S
C1910      H1915   1.083       .  S
C1910      C1911   1.408       .  A
C1911      C1912   1.418       .  A
C1912      N1913   1.421       .  S
N1913      O1917   1.259       .  A
N1913      O1918   1.259       .  A
N1916      O1920   1.262       .  A
N1916      O1919   1.262       .  A
C1921      H1928   1.084       .  S
C1921      C1922   1.402       .  A
C1921      C1926   1.408       .  A
C1922      C1923   1.412       .  A
C1923      C1924   1.405       .  A
C1923      N1930   1.421       .  S
C1924      H1929   1.082       .  S
C1924      C1925   1.402       .  A
C1925      C1926   1.418       .  A
C1926      N1927   1.426       .  S
N1927      O1931   1.262       .  A
N1927      O1932   1.262       .  A
N1930      O1934   1.261       .  A
N1930      O1933   1.259       .  A
C1935      H1942   1.084       .  S
C1935      C1936   1.410       .  A
C1935      C1940   1.411       .  A
C1936      C1937   1.407       .  A
C1937      C1938   1.405       .  A
C1937      N1944   1.437       .  S
C1938      H1943   1.084       .  S
C1938      C1939   1.415       .  A
C1939      C1940   1.408       .  A
C1940      N1941   1.428       .  S
N1941      O1946   1.262       .  A
N1944      O1948   1.263       .  A
N1944      O1947   1.262       .  A
C1949      H1956   1.083       .  S
C1949      C1950   1.402       .  A
C1949      C1954   1.412       .  A
C1950      C1951   1.421       .  A
C1951      C1952   1.405       .  A
C1951      N1958   1.440       .  S
C1952      H1957   1.082       .  S
C1952      C1953   1.401       .  A
C1953      C1954   1.410       .  A
C1954      N1955   1.413       .  S
N1955      O1959   1.260       .  A
N1958      O1962   1.262       .  A
N1958      O1961   1.263       .  A
C1963      N1981   1.357       .  A
C1963      C2000   1.452       .  S
C1963      C2548   1.486       .  S
N1964      N1981   1.331       .  A
N1964      N1986   1.312       .  A
C1965      N1990   1.355       .  A
C1965      C2003   1.483       .  S
C1965      H2010   1.081       .  S
H1966      C2007   1.081       .  S
C1967      N1991   1.326       .  A
C1967      C1971   1.445       .  S
C1967      H1996   1.082       .  S
Co1968     N1986   2.070       .  S
Co1968     N1976   2.063       .  S
Co1968     N2008   2.072       .  S
Co1968     N1984   2.065       .  S
Co1968    Cl2012   2.388       .  S
N1969      C2007   1.362       .  A
N1969      N1976   1.323       .  A
N1969     Co1970   2.147       .  S
Co1970     N1990   2.132       .  S
Co1970    Cl2012   2.537       .  S
C1971      N2009   1.370       .  A
C1971      C2593   1.499       .  S
N1972      N1979   1.316       .  A
N1972      N2002   1.326       .  A
N1972     Co2005   2.073       .  S
N1973      N1991   1.319       .  A
N1973      N2009   1.338       .  A
N1974      C2003   1.338       .  A
N1974      N1984   1.317       .  A
H1975      C2000   1.077       .  S
N1976      N1997   1.311       .  A
N1977      N1995   1.323       .  A
N1977      N1982   1.334       .  A
C1978      N1982   1.365       .  A
C1978      C2006   1.447       .  S
C1978      C2562   1.487       .  S
N1979      C1994   1.344       .  A
N1979     Co2001   2.099   1_556  S
C1980      N2008   1.339       .  A
C1980      C1983   1.456       .  S
C1980      H2014   1.080       .  S
C1983      N2004   1.358       .  A
C1983      C2534   1.488       .  S
N1984      N1990   1.322       .  A
N1985      C2011   1.341       .  A
N1985      N1987   1.313       .  A
N1985     Co2001   2.094   1_556  S
N1986      C2000   1.339       .  A
N1987      N2015   1.329       .  A
N1987     Co2005   2.078       .  S
H1988      C2011   1.057       .  S
H1989      C2006   1.082       .  S
N1991     Co2005   2.056       .  S
N1992      N2004   1.330       .  A
N1992      N2008   1.316       .  A
C1993      N1997   1.334       .  A
C1993      C2007   1.492       .  S
C1993      C2604   1.493       .  S
C1994      C2013   1.469       .  S
C1994      H1998   1.078       .  S
N1995      C2006   1.329       .  A
N1995     Co2005   2.071       .  S
C1999      N2015   1.351       .  A
C1999      C2011   1.466       .  S
C1999      C2506   1.491       .  S
N2002      C2013   1.346       .  A
C2003      C2576   1.486       .  S
C2013      C2520   1.495       .  S
C2016      N2034   1.362       .  A
C2016      C2053   1.452       .  S
C2016      C2495   1.495       .  S
N2017      N2034   1.332       .  A
N2017      N2039   1.321       .  A
N2017     Co2054   2.115       .  S
C2018      N2043   1.348       .  A
C2018      C2056   1.473       .  S
C2018      H2063   1.063       .  S
H2019      C2060   1.077       .  S
C2020      N2044   1.342       .  A
C2020      C2024   1.456       .  S
C2020      H2049   1.079       .  S
Co2021     N2039   2.089       .  S
Co2021     N2029   2.080       .  S
Co2021     N2061   2.063       .  S
Co2021     N2037   2.091       .  S
Co2021    Cl2065   2.376       .  S
N2022      C2060   1.347       .  A
N2022      N2029   1.315       .  A
Co2023     N2026   2.114       .  S
Co2023     N2030   2.108       .  S
C2024      N2062   1.358       .  A
C2024      C2439   1.497       .  S
N2025      N2032   1.321       .  A
N2025      N2055   1.314       .  A
N2025     Co2058   2.071       .  S
N2026      N2044   1.317       .  A
N2026      N2062   1.329       .  A
N2027      C2056   1.353       .  A
N2027      N2037   1.329       .  A
H2028      C2053   1.081       .  S
N2029      N2050   1.328       .  A
N2030      N2048   1.312       .  A
N2030      N2035   1.329       .  A
C2031      N2035   1.355       .  A
C2031      C2059   1.452       .  S
C2031      C2422   1.483       .  S
N2032      C2047   1.358       .  A
C2033      N2061   1.326       .  A
C2033      C2036   1.445       .  S
C2033      H2067   1.077       .  S
C2036      N2057   1.365       .  A
C2036      C2467   1.492       .  S
N2037      N2043   1.313       .  A
N2038      C2064   1.355       .  A
N2038      N2040   1.321       .  A
N2039      C2053   1.334       .  A
N2040      N2068   1.312       .  A
N2040     Co2058   2.076       .  S
H2041      C2064   1.081       .  S
H2042      C2059   1.080       .  S
N2044     Co2058   2.079       .  S
N2045      N2057   1.332       .  A
N2045      N2061   1.318       .  A
N2045     Co2054   2.122       .  S
C2046      N2050   1.350       .  A
C2046      C2060   1.473       .  S
C2046      C2408   1.504       .  S
C2047      C2066   1.481       .  S
C2047      H2051   1.081       .  S
N2048      C2059   1.340       .  A
N2048     Co2058   2.063       .  S
C2052      N2068   1.338       .  A
C2052      C2064   1.483       .  S
C2052      C2450   1.487       .  S
Co2054    Cl2065   2.538       .  S
N2055      C2066   1.336       .  A
C2056      C2394   1.514       .  S
C2066      C2481   1.484       .  S
C2069      N2087   1.352       .  A
C2069      C2106   1.452       .  S
C2069      C2551   1.485       .  S
N2070      N2087   1.324       .  A
N2070      N2092   1.313       .  A
N2070     Co2107   2.105       .  S
C2071      N2096   1.360       .  A
C2071      C2109   1.487       .  S
C2071      H2116   1.081       .  S
H2072      C2113   1.081       .  S
C2073      N2097   1.326       .  A
C2073      C2077   1.441       .  S
C2073      H2102   1.082       .  S
Co2074     N2092   2.062       .  S
Co2074     N2082   2.038       .  S
Co2074     N2114   2.054   1_545  S
Co2074     N2090   2.055   1_545  S
Co2074    Cl2118   2.393       .  S
N2075      C2113   1.364       .  A
N2075      N2082   1.322       .  A
N2075     Co2076   2.146   1_545  S
Co2076     N2079   2.128   1_565  S
Co2076     N2096   2.132       .  S
Co2076     N2083   2.150       .  S
Co2076    Cl2118   2.521   1_565  S
C2077      N2115   1.361       .  A
C2077      C2369   1.480       .  S
N2078      N2085   1.314       .  A
N2078      N2108   1.334       .  A
N2078     Co2111   2.103       .  S
N2079      N2097   1.326       .  A
N2079      N2115   1.333       .  A
N2080      C2109   1.331       .  A
N2080      N2090   1.310       .  A
H2081      C2106   1.079       .  S
N2082      N2103   1.309       .  A
N2083      N2101   1.324       .  A
N2083      N2088   1.339       .  A
C2084      N2088   1.369       .  A
C2084      C2112   1.443       .  S
C2084      C2338   1.500       .  S
N2085      C2100   1.341       .  A
N2085     Co2107   2.089       .  S
C2086      N2114   1.338       .  A
C2086      C2089   1.445       .  S
C2086      H2120   1.075       .  S
C2089      N2110   1.359       .  A
C2089      C2537   1.489       .  S
N2090      N2096   1.323       .  A
N2091      C2117   1.343       .  A
N2091      N2093   1.313       .  A
N2091     Co2107   2.083   1_565  S
N2092      C2106   1.346       .  A
N2093      N2121   1.331       .  A
N2093     Co2111   2.106   1_565  S
H2094      C2117   1.079       .  S
H2095      C2112   1.082       .  S
N2097     Co2111   2.058       .  S
N2098      N2110   1.329       .  A
N2098      N2114   1.312       .  A
N2098     Co2107   2.110   1_565  S
C2099      N2103   1.330       .  A
C2099      C2113   1.490       .  S
C2099      C2380   1.489       .  S
C2100      C2119   1.465       .  S
C2100      H2104   1.079       .  S
N2101      C2112   1.325       .  A
N2101     Co2111   2.057   1_565  S
C2105      N2121   1.357       .  A
C2105      C2117   1.469       .  S
C2105      C2397   1.507       .  S
Co2107    Cl2118   2.497       .  S
N2108      C2119   1.357       .  A
C2109      C2352   1.487       .  S
Co2111    Cl2118   2.383       .  S
C2119      C2411   1.504       .  S
C2122      N2140   1.363       .  A
C2122      C2159   1.437       .  S
C2122      C2327   1.483       .  S
N2123      N2140   1.332       .  A
N2123      N2145   1.321       .  A
N2123     Co2160   2.129       .  S
C2124      N2149   1.349       .  A
C2124      C2162   1.466       .  S
C2124      H2169   1.079       .  S
H2125      C2166   1.077       .  S
C2126      N2150   1.342       .  A
C2126      C2130   1.452       .  S
C2126      H2155   1.079       .  S
Co2127     N2145   2.038       .  S
Co2127     N2135   2.075       .  S
Co2127     N2167   2.062   1_545  S
Co2127     N2143   2.066   1_545  S
Co2127    Cl2171   2.380       .  S
N2128      C2166   1.343       .  A
N2128      N2135   1.313       .  A
N2128     Co2129   2.089       .  S
Co2129     N2132   2.116       .  S
Co2129     N2149   2.111   1_545  S
Co2129     N2136   2.102   1_545  S
Co2129    Cl2171   2.499       .  S
C2130      N2168   1.358       .  A
C2130      C2436   1.491       .  S
N2131      N2138   1.324       .  A
N2131      N2161   1.311       .  A
N2131     Co2164   2.057       .  S
N2132      N2150   1.316       .  A
N2132      N2168   1.329       .  A
N2133      C2162   1.342       .  A
N2133      N2143   1.326       .  A
H2134      C2159   1.080       .  S
N2135      N2156   1.329       .  A
N2136      N2154   1.314       .  A
N2136      N2141   1.328       .  A
C2137      N2141   1.354       .  A
C2137      C2165   1.456       .  S
C2137      C2425   1.482       .  S
N2138      C2153   1.355       .  A
N2138     Co2160   2.120       .  S
C2139      N2167   1.328       .  A
C2139      C2142   1.438       .  S
C2139      H2173   1.082       .  S
C2142      N2163   1.361       .  A
C2142      C2299   1.475       .  S
N2143      N2149   1.317       .  A
N2144      C2170   1.356       .  A
N2144      N2146   1.324       .  A
N2144     Co2160   2.130   1_565  S
N2145      C2159   1.324       .  A
N2146      N2174   1.312       .  A
N2146     Co2164   2.052   1_565  S
H2147      C2170   1.081       .  S
H2148      C2165   1.080       .  S
N2150     Co2164   2.072       .  S
N2151      N2163   1.334       .  A
N2151      N2167   1.322       .  A
N2151     Co2160   2.114   1_565  S
C2152      N2156   1.349       .  A
C2152      C2166   1.467       .  S
C2152      C2523   1.496       .  S
C2153      C2172   1.476       .  S
C2153      H2157   1.081       .  S
N2154      C2165   1.341       .  A
N2154     Co2164   2.072   1_565  S
C2158      N2174   1.332       .  A
C2158      C2170   1.478       .  S
C2158      C2285   1.471       .  S
Co2160    Cl2171   2.515       .  S
N2161      C2172   1.332       .  A
C2162      C2509   1.488       .  S
Co2164    Cl2171   2.391       .  S
C2172      C2313   1.467       .  S
C2175      N2193   1.366       .  A
C2175      C2212   1.448       .  S
C2175      C2607   1.504       .  S
N2176      N2193   1.337       .  A
N2176      N2198   1.317       .  A
C2177      N2202   1.354       .  A
C2177      C2215   1.478       .  S
C2177      H2222   1.081       .  S
H2178      C2219   1.081       .  S
C2179      N2203   1.329       .  A
C2179      C2183   1.445       .  S
C2179      H2208   1.080       .  S
Co2180     N2198   2.065       .  S
Co2180     N2188   2.065       .  S
Co2180     N2220   2.054       .  S
Co2180     N2196   2.055       .  S
N2181      C2219   1.358       .  A
N2181      N2188   1.322       .  A
Co2182     N2185   2.123       .  S
Co2182     N2189   2.120       .  S
Co2182    Cl2224   2.523       .  S
C2183      N2221   1.360       .  A
C2183      C2366   1.487       .  S
N2184      N2191   1.314       .  A
N2184      N2214   1.326       .  A
N2184     Co2217   2.076       .  S
N2185      N2203   1.326       .  A
N2185      N2221   1.332       .  A
N2186      C2215   1.331       .  A
N2186      N2196   1.311       .  A
H2187      C2212   1.078       .  S
N2188      N2209   1.313       .  A
N2189      N2207   1.320       .  A
N2189      N2194   1.334       .  A
C2190      N2194   1.363       .  A
C2190      C2218   1.442       .  S
C2190      C2310   1.492       .  S
N2191      C2206   1.352       .  A
N2191     Co2213   2.113   1_655  S
C2192      N2220   1.340       .  A
C2192      C2195   1.448       .  S
C2192      H2226   1.080       .  S
C2195      N2216   1.356       .  A
C2195      C2590   1.486       .  S
N2196      N2202   1.323       .  A
N2197      C2223   1.358       .  A
N2197      N2199   1.317       .  A
N2197     Co2213   2.128   1_655  S
N2198      C2212   1.334       .  A
N2199      N2227   1.324       .  A
N2199     Co2217   2.074       .  S
H2200      C2223   1.077       .  S
H2201      C2218   1.082       .  S
N2203     Co2217   2.061       .  S
N2204      N2216   1.331       .  A
N2204      N2220   1.312       .  A
C2205      N2209   1.334       .  A
C2205      C2219   1.479       .  S
C2205      C2383   1.481       .  S
C2206      C2225   1.478       .  S
C2206      H2210   1.080       .  S
N2207      C2218   1.325       .  A
N2207     Co2217   2.050       .  S
C2211      N2227   1.345       .  A
C2211      C2223   1.475       .  S
C2211      C2478   1.513       .  S
Co2213    Cl2224   2.507   1_455  S
N2214      C2225   1.350       .  A
C2215      C2324   1.480       .  S
Co2217    Cl2224   2.376       .  S
C2225      C2492   1.509       .  S
C2228      N2246   1.362       .  A
C2228      C2265   1.432       .  S
C2228      C2355   1.471       .  S
N2229      N2246   1.335       .  A
N2229      N2251   1.323       .  A
N2229     Co2266   2.128       .  S
C2230      N2255   1.349       .  A
C2230      C2268   1.474       .  S
C2230      H2275   1.074       .  S
H2231      C2272   1.080       .  S
C2232      N2256   1.336       .  A
C2232      C2236   1.442       .  S
C2232      H2261   1.080       .  S
Co2233     N2251   2.041       .  S
Co2233     N2241   2.080       .  S
Co2233     N2273   2.050       .  S
Co2233     N2249   2.074       .  S
N2234      C2272   1.349       .  A
N2234      N2241   1.315       .  A
Co2235     N2238   2.093       .  S
Co2235     N2242   2.100       .  S
Co2235    Cl2277   2.499       .  S
C2236      N2274   1.348       .  A
C2236      C2464   1.464       .  S
N2237      N2244   1.325       .  A
N2237      N2267   1.317       .  A
N2237     Co2270   2.062       .  S
N2238      N2256   1.318       .  A
N2238      N2274   1.327       .  A
N2239      C2268   1.348       .  A
N2239      N2249   1.323       .  A
H2240      C2265   1.082       .  S
N2241      N2262   1.326       .  A
N2242      N2260   1.314       .  A
N2242      N2247   1.328       .  A
C2243      N2247   1.353       .  A
C2243      C2271   1.446       .  S
C2243      C2453   1.474       .  S
N2244      C2259   1.355       .  A
C2245      N2273   1.322       .  A
C2245      C2248   1.444       .  S
C2245      H2279   1.082       .  S
C2248      N2269   1.366       .  A
C2248      C2296   1.495       .  S
N2249      N2255   1.313       .  A
N2250      C2276   1.356       .  A
N2250      N2252   1.322       .  A
N2251      C2265   1.324       .  A
N2252      N2280   1.311       .  A
N2252     Co2270   2.048       .  S
H2253      C2276   1.079       .  S
H2254      C2271   1.080       .  S
N2256     Co2270   2.060       .  S
N2257      N2269   1.336       .  A
N2257      N2273   1.321       .  A
N2257     Co2266   2.133       .  S
C2258      N2262   1.349       .  A
C2258      C2272   1.467       .  S
C2258      C2579   1.499       .  S
C2259      C2278   1.475       .  S
C2259      H2263   1.081       .  S
N2260      C2271   1.337       .  A
N2260     Co2270   2.058       .  S
C2264      N2280   1.335       .  A
C2264      C2276   1.488       .  S
C2264      C2282   1.493       .  S
N2267      C2278   1.334       .  A
C2268      C2565   1.506       .  S
Co2270    Cl2277   2.383       .  S
C2278      C2341   1.476       .  S
C2281      H2288   1.084       .  S
C2281      C2282   1.411       .  A
C2281      C2286   1.398       .  A
C2282      C2283   1.412       .  A
C2283      C2284   1.412       .  A
C2283      N2290   1.429       .  S
C2284      H2289   1.084       .  S
C2284      C2285   1.410       .  A
C2285      C2286   1.404       .  A
C2286      N2287   1.434       .  S
N2287      O2291   1.263       .  A
N2287      O2292   1.262       .  A
N2290      O2294   1.262       .  A
N2290      O2293   1.262       .  A
C2295      H2302   1.084       .  S
C2295      C2296   1.409       .  A
C2295      C2300   1.391       .  A
C2296      C2297   1.421       .  A
C2297      C2298   1.421       .  A
C2297      N2304   1.441       .  S
C2298      H2303   1.083       .  S
C2298      C2299   1.409       .  A
C2299      C2300   1.400       .  A
C2300      N2301   1.429       .  S
N2301      O2305   1.261       .  A
N2301      O2306   1.262       .  A
N2304      O2308   1.263       .  A
N2304      O2307   1.262       .  A
C2309      H2316   1.080       .  S
C2309      C2310   1.408       .  A
C2309      C2314   1.394       .  A
C2310      C2311   1.416       .  A
C2311      C2312   1.413       .  A
C2311      N2318   1.431       .  S
C2312      H2317   1.084       .  S
C2312      C2313   1.407       .  A
C2313      C2314   1.402       .  A
C2314      N2315   1.432       .  S
N2315      O2319   1.262       .  A
N2315      O2320   1.262       .  A
N2318      O2322   1.262       .  A
N2318      O2321   1.262       .  A
C2323      H2330   1.084       .  S
C2323      C2324   1.391       .  A
C2323      C2328   1.402       .  A
C2324      C2325   1.427       .  A
C2325      C2326   1.398       .  A
C2325      N2332   1.434       .  S
C2326      H2331   1.084       .  S
C2326      C2327   1.389       .  A
C2327      C2328   1.429       .  A
C2328      N2329   1.433       .  S
N2329      O2333   1.263       .  A
N2329      O2334   1.261       .  A
N2332      O2336   1.259       .  A
N2332      O2335   1.263       .  A
C2337      H2344   1.078       .  S
C2337      C2338   1.411       .  A
C2337      C2342   1.397       .  A
C2338      C2339   1.413       .  A
C2339      C2340   1.415       .  A
C2339      N2346   1.428       .  S
C2340      H2345   1.084       .  S
C2340      C2341   1.411       .  A
C2341      C2342   1.402       .  A
C2342      N2343   1.434       .  S
N2343      O2347   1.262       .  A
N2343      O2348   1.262       .  A
N2346      O2350   1.262       .  A
N2346      O2349   1.262       .  A
C2351      H2358   1.083       .  S
C2351      C2352   1.402       .  A
C2351      C2356   1.409       .  A
C2352      C2353   1.424       .  A
C2353      C2354   1.398       .  A
C2353      N2360   1.436       .  S
C2354      H2359   1.084       .  S
C2354      C2355   1.392       .  A
C2355      C2356   1.413       .  A
C2356      N2357   1.425       .  S
N2357      O2361   1.262       .  A
N2357      O2362   1.260       .  A
N2360      O2364   1.263       .  A
N2360      O2363   1.263       .  A
C2365      H2372   1.084       .  S
C2365      C2366   1.395       .  A
C2365      C2370   1.400       .  A
C2366      C2367   1.428       .  A
C2367      C2368   1.404       .  A
C2367      N2374   1.435       .  S
C2368      H2373   1.084       .  S
C2368      C2369   1.392       .  A
C2369      C2370   1.420       .  A
C2370      N2371   1.433       .  S
N2371      O2375   1.262       .  A
N2371      O2376   1.261   1_545  A
N2374      O2378   1.261       .  A
N2374      O2377   1.263       .  A
C2379      H2386   1.085       .  S
C2379      C2380   1.406       .  A
C2379      C2384   1.392       .  A
C2380      C2381   1.413       .  A
C2381      C2382   1.420       .  A
C2381      N2388   1.428       .  S
C2382      H2387   1.083       .  S
C2382      C2383   1.413       .  A
C2383      C2384   1.404       .  A
C2384      N2385   1.429       .  S
N2385      O2389   1.260       .  A
N2385      O2390   1.262       .  A
N2388      O2392   1.262       .  A
N2388      O2391   1.262       .  A
C2393      H2400   1.083       .  S
C2393      C2394   1.409       .  A
C2393      C2398   1.412       .  A
C2394      C2395   1.417       .  A
C2395      C2396   1.406       .  A
C2395      N2402   1.422       .  S
C2396      H2401   1.080       .  S
C2396      C2397   1.402       .  A
C2397      C2398   1.415       .  A
C2398      N2399   1.425       .  S
N2399      O2403   1.261       .  A
N2399      O2404   1.262       .  A
N2402      O2405   1.259       .  A
C2407      H2414   1.081       .  S
C2407      C2408   1.403       .  A
C2407      C2412   1.404       .  A
C2408      C2409   1.421       .  A
C2409      C2410   1.418       .  A
C2409      N2416   1.431       .  S
C2410      H2415   1.083       .  S
C2410      C2411   1.407       .  A
C2411      C2412   1.408       .  A
C2412      N2413   1.425       .  S
N2413      O2417   1.258       .  A
N2413      O2418   1.262       .  A
N2416      O2420   1.262       .  A
N2416      O2419   1.262       .  A
C2421      H2428   1.083       .  S
C2421      C2422   1.400       .  A
C2421      C2426   1.408       .  A
C2422      C2423   1.417       .  A
C2423      C2424   1.406       .  A
C2423      N2430   1.435       .  S
C2424      H2429   1.084       .  S
C2424      C2425   1.401       .  A
C2425      C2426   1.419       .  A
C2426      N2427   1.438       .  S
N2427      O2431   1.262       .  A
N2427      O2432   1.261       .  A
C2435      H2442   1.084       .  S
C2435      C2436   1.402       .  A
C2435      C2440   1.402       .  A
C2436      C2437   1.414       .  A
C2437      C2438   1.409       .  A
C2437      N2444   1.430       .  S
C2438      H2443   1.083       .  S
C2438      C2439   1.409       .  A
C2439      C2440   1.407       .  A
C2440      N2441   1.420       .  S
N2441      O2446   1.259       .  A
N2444      O2448   1.262       .  A
N2444      O2447   1.262       .  A
C2449      H2456   1.084       .  S
C2449      C2450   1.414       .  A
C2449      C2454   1.402       .  A
C2450      C2451   1.405       .  A
C2451      C2452   1.408       .  A
C2451      N2458   1.428       .  S
C2452      H2457   1.084       .  S
C2452      C2453   1.410       .  A
C2453      C2454   1.406       .  A
C2454      N2455   1.441       .  S
N2455      O2459   1.262       .  A
N2455      O2460   1.263       .  A
N2458      O2462   1.262       .  A
N2458      O2461   1.262       .  A
C2463      H2470   1.085       .  S
C2463      C2464   1.384       .  A
C2463      C2468   1.388       .  A
C2464      C2465   1.417       .  A
C2465      C2466   1.412       .  A
C2465      N2472   1.436       .  S
C2466      H2471   1.083       .  S
C2466      C2467   1.403       .  A
C2467      C2468   1.429       .  A
C2468      N2469   1.427       .  S
N2469      O2473   1.257       .  A
N2469      O2474   1.263       .  A
N2472      O2476   1.262       .  A
N2472      O2475   1.262       .  A
C2477      H2484   1.066       .  S
C2477      C2478   1.410       .  A
C2477      C2482   1.419       .  A
C2478      C2479   1.419       .  A
C2479      C2480   1.400       .  A
C2479      N2486   1.425       .  S
C2480      H2485   1.084       .  S
C2480      C2481   1.398       .  A
C2481      C2482   1.413       .  A
C2482      N2483   1.432       .  S
N2483      O2487   1.261   1_655  A
N2483      O2488   1.261       .  A
N2486      O2490   1.262       .  A
N2486      O2489   1.262       .  A
C2491      H2498   1.081       .  S
C2491      C2492   1.407       .  A
C2491      C2496   1.417       .  A
C2492      C2493   1.419       .  A
C2493      C2494   1.405       .  A
C2493      N2500   1.427       .  S
C2494      H2499   1.084       .  S
C2494      C2495   1.402       .  A
C2495      C2496   1.415       .  A
C2496      N2497   1.436       .  S
N2497      O2501   1.261       .  A
N2497      O2502   1.262       .  A
N2500      O2504   1.262       .  A
N2500      O2503   1.262       .  A
C2505      H2512   1.083       .  S
C2505      C2506   1.404       .  A
C2505      C2510   1.401       .  A
C2506      C2507   1.415       .  A
C2507      C2508   1.414       .  A
C2507      N2514   1.431       .  S
C2508      H2513   1.083       .  S
C2508      C2509   1.406       .  A
C2509      C2510   1.398       .  A
N2511      O2515   1.263       .  A
N2511      O2516   1.259       .  A
N2514      O2518   1.262       .  A
N2514      O2517   1.262       .  A
C2519      H2526   1.083       .  S
C2519      C2520   1.402       .  A
C2519      C2524   1.403       .  A
C2520      C2521   1.415       .  A
C2521      C2522   1.410       .  A
C2521      N2528   1.428       .  S
C2522      H2527   1.084       .  S
C2522      C2523   1.406       .  A
C2523      C2524   1.410       .  A
N2525      O2529   1.262       .  A
N2525      O2530   1.261       .  A
N2528      O2532   1.262       .  A
N2528      O2531   1.261       .  A
C2533      H2540   1.084       .  S
C2533      C2534   1.406       .  A
C2533      C2538   1.402       .  A
C2534      C2535   1.421       .  A
C2535      C2536   1.415       .  A
C2535      N2542   1.446       .  S
C2536      H2541   1.084       .  S
C2536      C2537   1.406       .  A
C2537      C2538   1.410       .  A
C2538      N2539   1.434       .  S
N2539      O2543   1.261       .  A
N2539      O2544   1.262       .  A
N2542      O2546   1.263       .  A
N2542      O2545   1.262       .  A
C2547      H2554   1.084       .  S
C2547      C2548   1.407       .  A
C2547      C2552   1.404       .  A
C2548      C2549   1.420       .  A
C2549      C2550   1.415       .  A
C2549      N2556   1.445       .  S
C2550      H2555   1.083       .  S
C2550      C2551   1.404       .  A
C2551      C2552   1.407       .  A
C2552      N2553   1.432       .  S
N2553      O2558   1.262       .  A
N2556      O2560   1.263       .  A
N2556      O2559   1.262       .  A
C2561      H2568   1.083       .  S
C2561      C2562   1.401       .  A
C2561      C2566   1.411       .  A
C2562      C2563   1.411       .  A
C2563      C2564   1.402       .  A
C2563      N2570   1.431       .  S
C2564      H2569   1.083       .  S
C2564      C2565   1.408       .  A
C2565      C2566   1.417       .  A
C2566      N2567   1.421       .  S
N2567      O2571   1.259       .  A
N2567      O2572   1.259       .  A
N2570      O2574   1.262       .  A
N2570      O2573   1.262       .  A
C2575      H2582   1.084       .  S
C2575      C2576   1.401       .  A
C2575      C2580   1.407       .  A
C2576      C2577   1.412       .  A
C2577      C2578   1.405       .  A
C2577      N2584   1.421       .  S
C2578      H2583   1.082       .  S
C2578      C2579   1.401       .  A
C2579      C2580   1.417       .  A
C2580      N2581   1.426       .  S
N2581      O2585   1.262       .  A
N2581      O2586   1.262       .  A
N2584      O2588   1.261       .  A
N2584      O2587   1.259       .  A
C2589      H2596   1.084       .  S
C2589      C2590   1.410       .  A
C2589      C2594   1.411       .  A
C2590      C2591   1.408       .  A
C2591      C2592   1.405       .  A
C2591      N2598   1.437       .  S
C2592      H2597   1.084       .  S
C2592      C2593   1.415       .  A
C2593      C2594   1.408       .  A
C2594      N2595   1.428       .  S
N2595      O2600   1.262       .  A
N2598      O2602   1.263       .  A
N2598      O2601   1.262       .  A
C2603      H2610   1.083       .  S
C2603      C2604   1.402       .  A
C2603      C2608   1.411       .  A
C2604      C2605   1.421       .  A
C2605      C2606   1.405       .  A
C2605      N2612   1.440       .  S
C2606      H2611   1.082       .  S
C2606      C2607   1.401       .  A
C2607      C2608   1.410       .  A
C2608      N2609   1.413       .  S
N2609      O2613   1.260       .  A
N2612      O2616   1.262       .  A
N2612      O2615   1.263       .  A
