geometry optimzed in LAMMPS
_audit_creation_date              2020-11-30 
_audit_creation_method            'lammps2cif' 
_symmetry_space_group_name_H-M    'P1' 
_symmetry_Int_Tables_number       1 
_symmetry_cell_setting            triclinic 
loop_ 
_symmetry_equiv_pos_as_xyz 
  x,y,z 
_cell_length_a                    44.9478589 
_cell_length_b                    44.74228531010421 
_cell_length_c                    44.914344401104536 
_cell_angle_alpha                 89.9349041603437 
_cell_angle_beta                  89.96656478531702 
_cell_angle_gamma                 89.93402720115715 
loop_ 
_atom_site_label 
_atom_site_type_symbol 
_atom_site_fract_x 
_atom_site_fract_y 
_atom_site_fract_z 
_atom_site_charge 
N1          N  0.03447177  0.26303268  0.26292010    -0.02600
C2          C  0.04523651  0.23503432  0.26730006     0.00000
C3          C  0.05910034  0.22440392  0.24204263    -0.22900
C4          C  0.05732256  0.24683335  0.22129451    -0.23100
C5          C  0.04242578  0.27036930  0.23461970    -0.00100
H6          H  0.06817626  0.20224880  0.23866936     0.13700
H7          H  0.06466840  0.24558630  0.19837487     0.13700
O8          O  0.99431240  0.40968368  0.44757419    -0.79300
O9          O  0.00230352  0.57928510  0.44579585    -0.80800
O10         O  0.95007614  0.49828122  0.41044479    -0.77800
O11         O  0.04642481  0.49387011  0.41045925    -0.76200
O12         O  0.08298577  0.49441908  0.44540940    -0.78000
O13         O  0.91298785  0.49857914  0.44514601    -0.78900
O14         O  0.00131551  0.54305936  0.41012234    -0.80300
O15         O  0.99584599  0.44534799  0.41128871    -0.80500
Eu16       Eu  0.99816270  0.49466862  0.43540741     2.39200
O17         O  0.02986644  0.52411641  0.46489276    -0.88100
O18         O  0.96661129  0.46564606  0.46538880    -0.91700
C19         C  0.99471388  0.41784579  0.42002857     1.03000
C20         C  0.00271039  0.57060116  0.41843177     1.02800
C21         C  0.92240590  0.49944754  0.41793855     1.02800
C22         C  0.07408225  0.49424459  0.41807429     1.00600
H23         H  0.95707052  0.53931422  0.45227829     0.30400
O24         O  0.96861257  0.52623587  0.46485970    -1.00400
H25         H  0.03944415  0.45099646  0.45285844     0.30400
O26         O  0.02778155  0.46394498  0.46556467    -1.03000
O27         O  0.99780136  0.57979424  0.54366880    -0.80200
O28         O  0.99440453  0.41069561  0.54540604    -0.79800
O29         O  0.91516957  0.54829855  0.49512087    -0.78200
O30         O  0.08453855  0.54318554  0.49794959    -0.81500
O31         O  0.08191141  0.44235311  0.49224455    -0.79400
O32         O  0.91147404  0.44801403  0.49506629    -0.78000
O33         O  0.94969901  0.49860771  0.58019881    -0.79600
O34         O  0.04643864  0.49114291  0.57971367    -0.81500
O35         O  0.91306523  0.49887481  0.54476708    -0.78200
O36         O  0.08321104  0.48943121  0.54453447    -0.80900
O37         O  0.95341816  0.58193307  0.49434541    -0.76600
O38         O  0.94749688  0.41231273  0.49570770    -0.76700
O39         O  0.04388353  0.40867493  0.49472062    -0.76300
O40         O  0.04856752  0.57921451  0.49686036    -0.79800
O41         O  0.99727445  0.54420452  0.57994549    -0.79200
O42         O  0.99346815  0.44704271  0.58076202    -0.77600
Eu43       Eu  0.00024923  0.55499187  0.49491114     2.39800
Eu44       Eu  0.99637516  0.43519331  0.49603920     2.39600
Eu45       Eu  0.93672828  0.49725072  0.49491579     2.38400
Eu46       Eu  0.05960616  0.49331597  0.49527207     2.39900
Eu47       Eu  0.99790127  0.49536367  0.55528448     2.39800
O48         O  0.02800441  0.46420261  0.52578798    -0.92000
O49         O  0.96857543  0.52619612  0.52481541    -0.90900
C50         C  0.99659804  0.57166448  0.57117638     1.03200
C51         C  0.99273813  0.41935420  0.57277200     1.01900
C52         C  0.92564482  0.57525795  0.49458381     1.01300
C53         C  0.07587310  0.57089007  0.49854029     1.03300
C54         C  0.07161314  0.41526173  0.49212337     1.02200
C55         C  0.92001407  0.42041982  0.49556838     1.01100
C56         C  0.92223484  0.49948325  0.57209797     1.01100
C57         C  0.07394886  0.48893756  0.57174227     1.03800
H58         H  0.95353707  0.45434659  0.53796481     0.31100
O59         O  0.96634971  0.46632821  0.52545295    -1.04100
H60         H  0.04212709  0.53654183  0.53839724     0.33200
O61         O  0.02979541  0.52444960  0.52559270    -1.06700
N62         N  0.00625860  0.72969055  0.72970720    -0.02600
C63         C  0.01080558  0.72536250  0.75932788     0.00000
C64         C  0.01738970  0.75203977  0.77327997    -0.22900
C65         C  0.01795095  0.77352129  0.75151502    -0.23100
C66         C  0.01128382  0.75923925  0.72514262    -0.00100
H67         H  0.02182641  0.75533511  0.79672850     0.13700
H68         H  0.02278454  0.79701439  0.75450302     0.13700
N69         N  0.98549718  0.26163225  0.73326487    -0.02600
C70         C  0.97805440  0.23328949  0.72540195     0.00000
C71         C  0.96982264  0.21692961  0.75017587    -0.22900
C72         C  0.97171591  0.23578249  0.77412848    -0.23100
C73         C  0.98156801  0.26290864  0.76325523    -0.00100
H74         H  0.96438244  0.19338180  0.75087285     0.13700
H75         H  0.96742364  0.23009644  0.79716089     0.13700
N76         N  0.99876027  0.73115582  0.26198826    -0.02600
C77         C  0.99018202  0.72844560  0.23306053     0.00000
C78         C  0.98304628  0.75605867  0.22117947    -0.22900
C79         C  0.98685926  0.77654751  0.24339136    -0.23100
C80         C  0.99645773  0.76082218  0.26797961    -0.00100
H81         H  0.97646904  0.76079885  0.19848225     0.13700
H82         H  0.98321678  0.80041242  0.24183266     0.13700
O83         O  0.00379379  0.04879402  0.41064545    -0.79300
O84         O  0.00739410  0.04715193  0.58148619    -0.80800
O85         O  0.95430320  0.08319195  0.49966914    -0.77800
O86         O  0.05213665  0.08300313  0.49164148    -0.76200
O87         O  0.08811918  0.04719415  0.49312512    -0.78000
O88         O  0.91904478  0.04651984  0.49968578    -0.78900
O89         O  0.00638425  0.08214127  0.54452140    -0.80300
O90         O  0.00261388  0.08346279  0.44769185    -0.80500
Eu91       Eu  0.00326748  0.05811894  0.49595985     2.39200
O92         O  0.03396071  0.02822248  0.52638928    -0.88100
O93         O  0.97271741  0.02821558  0.46576356    -0.91700
C94         C  0.00353057  0.07615467  0.42002213     1.03000
C95         C  0.00798265  0.07456390  0.57209801     1.02800
C96         C  0.92699670  0.07419968  0.50126479     1.02800
C97         C  0.07968780  0.07464467  0.49073093     1.00600
H98         H  0.96188805  0.03971652  0.53938223     0.30400
O99         O  0.97398592  0.02733125  0.52668291    -1.00400
H100        H  0.04541987  0.04056767  0.45262559     0.30400
O101        O  0.03311113  0.02816173  0.46515179    -1.03000
O102        O  0.00529506  0.94655764  0.57971048    -0.80200
O103        O  0.00451754  0.94939944  0.41004867    -0.79800
O104        O  0.91915187  0.99720194  0.54527177    -0.78200
O105        O  0.08901028  0.99775339  0.54326641    -0.81500
O106        O  0.08739598  0.99679303  0.44688517    -0.79400
O107        O  0.91788827  0.00046546  0.44847626    -0.78000
O108        O  0.95619684  0.91197007  0.49658653    -0.79600
O109        O  0.05348447  0.91298218  0.49637897    -0.81500
O110        O  0.91977412  0.94719023  0.49701398    -0.78200
O111        O  0.08925020  0.94878964  0.49772186    -0.80900
O112        O  0.95470552  0.99775092  0.58154270    -0.76600
O113        O  0.95238597  0.00186292  0.41112643    -0.76700
O114        O  0.05257607  0.99770221  0.40990229    -0.76300
O115        O  0.05432716  0.99525510  0.58036710    -0.79800
O116        O  0.00594717  0.91204115  0.54252408    -0.79200
O117        O  0.00518029  0.91397393  0.44659809    -0.77600
Eu118      Eu  0.00436851  0.99733441  0.55720855     2.39800
Eu119      Eu  0.00277507  0.99876798  0.43422946     2.39600
Eu120      Eu  0.94351022  0.99720612  0.49647709     2.38400
Eu121      Eu  0.06363222  0.99805922  0.49540716     2.39900
Eu122      Eu  0.00429768  0.93793857  0.49505537     2.39800
O123        O  0.03366294  0.96841828  0.46440203    -0.92000
O124        O  0.97418042  0.96713096  0.52650743    -0.90900
C125        C  0.00637059  0.91927163  0.57024698     1.03200
C126        C  0.00536936  0.92200879  0.41906588     1.01900
C127        C  0.92726036  0.99796687  0.57282650     1.01300
C128        C  0.08148050  0.99565470  0.57086732     1.03300
C129        C  0.07981609  0.99640579  0.41932782     1.02200
C130        C  0.92518474  0.00268609  0.42082240     1.01100
C131        C  0.92858214  0.91960372  0.49721166     1.01100
C132        C  0.08100165  0.92104351  0.49799187     1.03800
H133        H  0.96066232  0.95520109  0.45259122     0.31100
O134        O  0.97318242  0.96765922  0.46481606    -1.04100
H135        H  0.04668622  0.95508045  0.53780751     0.33200
O136        O  0.03406011  0.96772839  0.52578811    -1.06700
N137        N  0.23679434  0.23336282  0.46341484    -0.02600
C138        C  0.23306389  0.26351607  0.46184165     0.00000
C139        C  0.26025364  0.27782856  0.46384739    -0.22900
C140        C  0.28146926  0.25592591  0.46637580    -0.23100
C141        C  0.26656742  0.22897671  0.46615768    -0.00100
H142        H  0.26410652  0.30169493  0.46440337     0.13700
H143        H  0.30516822  0.25925700  0.46898454     0.13700
N144        N  0.76531689  0.22881398  0.52656617    -0.02600
C145        C  0.76865825  0.25899402  0.52736057     0.00000
C146        C  0.74170243  0.27288050  0.53244481    -0.22900
C147        C  0.72079496  0.25066623  0.53399377    -0.23100
C148        C  0.73576085  0.22396684  0.53012688    -0.00100
H149        H  0.73755640  0.29668783  0.53348676     0.13700
H150        H  0.69697975  0.25370463  0.53590850     0.13700
N151        N  0.76905078  0.76332401  0.52804591    -0.02600
C152        C  0.73973428  0.76684430  0.53497939     0.00000
C153        C  0.72652517  0.73912771  0.53870849    -0.22900
C154        C  0.74811103  0.71803579  0.53388722    -0.23100
C155        C  0.77377528  0.73340217  0.52685748    -0.00100
H156        H  0.70319763  0.73465028  0.54263809     0.13700
H157        H  0.74505635  0.69404740  0.53390344     0.13700
N158        N  0.23869014  0.75864908  0.49557648    -0.02600
C159        C  0.23424233  0.72862610  0.49374342     0.00000
C160        C  0.26075738  0.71399503  0.48817635    -0.22900
C161        C  0.28249354  0.73542508  0.48753273    -0.23100
C162        C  0.26850443  0.76240782  0.49269096    -0.00100
H163        H  0.26399088  0.69014288  0.48577688     0.13700
H164        H  0.30609852  0.73168330  0.48453398     0.13700
N165        N  0.73763007  0.99937395  0.25962790    -0.02600
C166        C  0.76640803  0.00775323  0.26419833     0.00000
C167        C  0.78129627  0.01039957  0.23739992    -0.22900
C168        C  0.76110511  0.00442607  0.21548675    -0.23100
C169        C  0.73462058  0.99742689  0.22948436    -0.00100
H170        H  0.80439784  0.01635367  0.23415306     0.13700
H171        H  0.76515875  0.00547764  0.19175384     0.13700
O172        O  0.45090390  0.07965335  0.49334662    -0.79300
O173        O  0.45413556  0.90904754  0.49475480    -0.80800
O174        O  0.41696707  0.99369444  0.44618427    -0.77800
O175        O  0.41667861  0.99366278  0.54302144    -0.76200
O176        O  0.45214091  0.99415295  0.57906321    -0.78000
O177        O  0.45271806  0.99493484  0.41006465    -0.78900
O178        O  0.41855377  0.94561498  0.49485449    -0.80300
O179        O  0.41598857  0.04299019  0.49261592    -0.80500
Eu180      Eu  0.44191913  0.99467760  0.49460114     2.39200
O181        O  0.47211307  0.96349581  0.52397494    -0.88100
O182        O  0.47135491  0.02608239  0.46494537    -0.91700
C183        C  0.42364329  0.07080280  0.49206079     1.03000
C184        C  0.42683757  0.91803363  0.49499022     1.02800
C185        C  0.42531935  0.99374821  0.41872081     1.02800
C186        C  0.42472820  0.99394656  0.57051774     1.00600
H187        H  0.46028780  0.95199388  0.45218131     0.30400
O188        O  0.47254279  0.96433004  0.46473543    -1.00400
H189        H  0.45805691  0.03735090  0.53791215     0.30400
O190        O  0.47086228  0.02529267  0.52549273    -1.03000
O191        O  0.55364566  0.90989658  0.49701289    -0.80200
O192        O  0.54984320  0.08106104  0.49834575    -0.79800
O193        O  0.50160417  0.94757505  0.41009512    -0.78200
O194        O  0.49937686  0.94451237  0.57924017    -0.81500
O195        O  0.50050837  0.04197483  0.57989421    -0.79400
O196        O  0.50194372  0.04443367  0.41036784    -0.78000
O197        O  0.58663142  0.99561735  0.44667155    -0.79600
O198        O  0.58552085  0.99704199  0.54363146    -0.81500
O199        O  0.55117544  0.99503616  0.41067713    -0.78200
O200        O  0.54972550  0.99566795  0.57959200    -0.80900
O201        O  0.50482905  0.91004345  0.44432829    -0.76600
O202        O  0.50179867  0.08100958  0.44586860    -0.76700
O203        O  0.50064616  0.08017743  0.54633367    -0.76300
O204        O  0.50063591  0.90816203  0.54329509    -0.79800
O205        O  0.58741134  0.94792591  0.49626997    -0.79200
O206        O  0.58472417  0.04409162  0.49898306    -0.77600
Eu207      Eu  0.50329654  0.93324451  0.49427328     2.39800
Eu208      Eu  0.50075142  0.05675350  0.49577160     2.39600
Eu209      Eu  0.50178960  0.99584507  0.43493628     2.38400
Eu210      Eu  0.50103684  0.99380365  0.55486527     2.39900
Eu211      Eu  0.56110374  0.99552332  0.49503039     2.39800
O212        O  0.53047443  0.02511482  0.52518826    -0.92000
O213        O  0.53243522  0.96482942  0.46412946    -0.90900
C214        C  0.58063465  0.92007734  0.49792661     1.03200
C215        C  0.57699002  0.07177947  0.49999332     1.01900
C216        C  0.50390204  0.91985790  0.41721441     1.01300
C217        C  0.49915680  0.91697338  0.57066240     1.03300
C218        C  0.50092554  0.06991266  0.57340446     1.02200
C219        C  0.50226785  0.07206233  0.41844233     1.01100
C220        C  0.57869224  0.99488139  0.41914567     1.01100
C221        C  0.57709718  0.99683269  0.57107273     1.03800
H222        H  0.54405577  0.03913805  0.45308377     0.31100
O223        O  0.53141363  0.02668896  0.46523216    -1.04100
H224        H  0.54482675  0.95183538  0.53805460     0.33200
O225        O  0.53225868  0.96394305  0.52527892    -1.06700
N226        N  0.26844018  0.97156262  0.72854376    -0.02600
C227        C  0.27267128  0.97491485  0.75819500     0.00000
C228        C  0.24650178  0.96973701  0.77344755    -0.22900
C229        C  0.22522363  0.96361310  0.75231072    -0.23100
C230        C  0.23920607  0.96488562  0.72485535    -0.00100
H231        H  0.24308473  0.97122089  0.79724947     0.13700
H232        H  0.20175894  0.96009509  0.75640828     0.13700
N233        N  0.73425443  0.00805284  0.72947765    -0.02600
C234        C  0.76325952  0.01599181  0.72517643     0.00000
C235        C  0.77638395  0.02316608  0.75206753    -0.22900
C236        C  0.75503925  0.02003042  0.77358547    -0.23100
C237        C  0.72950012  0.01078314  0.75934266    -0.00100
H238        H  0.79945656  0.02900297  0.75571405     0.13700
H239        H  0.75786504  0.02374556  0.79722108     0.13700
N240        N  0.26730635  0.97234321  0.26217772    -0.02600
C241        C  0.27343141  0.97293658  0.23257370     0.00000
C242        C  0.24794031  0.96935029  0.21591087    -0.22900
C243        C  0.22501353  0.96673065  0.23569535    -0.23100
C244        C  0.23730120  0.96836614  0.26387730    -0.00100
H245        H  0.24614053  0.96995330  0.19188711     0.13700
H246        H  0.20165156  0.96504172  0.23014111     0.13700
O247        O  0.58251854  0.99682871  0.04929093    -0.79300
O248        O  0.41226102  0.99776048  0.04414252    -0.80800
O249        O  0.49612312  0.04603783  0.08141640    -0.77800
O250        O  0.49540823  0.94720061  0.08271773    -0.76200
O251        O  0.49778253  0.91098593  0.04723338    -0.78000
O252        O  0.49643936  0.08156022  0.04505963    -0.78900
O253        O  0.44865974  0.99559611  0.07941225    -0.80300
O254        O  0.54485729  0.99770310  0.08344447    -0.80500
Eu255      Eu  0.49747219  0.99632752  0.05708961     2.39200
O256        O  0.46808114  0.96627758  0.02611383    -0.88100
O257        O  0.52833819  0.02644703  0.02774976    -0.91700
C258        C  0.57257529  0.99718667  0.07634220     1.03000
C259        C  0.42122026  0.99673187  0.07145912     1.02800
C260        C  0.49587060  0.07363012  0.07266675     1.02800
C261        C  0.49569268  0.91946097  0.07472610     1.00600
H262        H  0.45421777  0.03903594  0.03821495     0.30400
O263        O  0.46690028  0.02615232  0.02630591    -1.00400
H264        H  0.54108381  0.95305995  0.04156774     0.30400
O265        O  0.52913450  0.96555251  0.02866450    -1.03000
O266        O  0.41485109  0.99428167  0.94460777    -0.80200
O267        O  0.58576895  0.99599715  0.95037118    -0.79800
O268        O  0.44973201  0.08000566  0.99146477    -0.78200
O269        O  0.45134179  0.91059084  0.00081623    -0.81500
O270        O  0.54820165  0.91177578  0.99600254    -0.79400
O271        O  0.54608276  0.08029974  0.99962348    -0.78000
O272        O  0.50121521  0.04516079  0.91172855    -0.79600
O273        O  0.50141347  0.94644387  0.91320116    -0.81500
O274        O  0.50066271  0.08078720  0.94795013    -0.78200
O275        O  0.49829051  0.91020489  0.94869410    -0.80900
O276        O  0.41295410  0.04515570  0.99122122    -0.76600
O277        O  0.58347372  0.04600052  0.99958566    -0.76700
O278        O  0.58487923  0.94684609  0.99804407    -0.76300
O279        O  0.41418499  0.94554289  0.99940130    -0.79800
O280        O  0.45276904  0.99623202  0.91072972    -0.79200
O281        O  0.55006215  0.99580228  0.91436050    -0.77600
Eu282      Eu  0.43735409  0.99563473  0.99518822     2.39800
Eu283      Eu  0.56005203  0.99612138  0.99897138     2.39600
Eu284      Eu  0.49810110  0.05578820  0.99669324     2.38400
Eu285      Eu  0.49932111  0.93556884  0.99765591     2.39900
Eu286      Eu  0.50051918  0.99584857  0.93702891     2.39800
O287        O  0.53019650  0.96589469  0.96819071    -0.92000
O288        O  0.46875109  0.02570230  0.96582967    -0.90900
C289        C  0.42490779  0.99508261  0.91758508     1.03200
C290        C  0.57750257  0.99602816  0.92284299     1.01900
C291        C  0.42211065  0.07247815  0.98968552     1.01300
C292        C  0.42380310  0.91833938  0.00173721     1.03300
C293        C  0.57574672  0.91947425  0.99666882     1.02200
C294        C  0.57372980  0.07322304  0.99984112     1.01100
C295        C  0.50149819  0.07273103  0.92035141     1.01100
C296        C  0.49932094  0.91886111  0.92119510     1.03800
H297        H  0.54261739  0.03877294  0.95562034     0.31100
O298        O  0.53005866  0.02610277  0.96776901    -1.04100
H299        H  0.45728231  0.95258758  0.95383399     0.33200
O300        O  0.46922314  0.96528905  0.96634451    -1.06700
N301        N  0.51988603  0.23300065  0.22976037    -0.02600
C302        C  0.52746097  0.26229960  0.22682632     0.00000
C303        C  0.53575793  0.27415893  0.25395769    -0.22900
C304        C  0.53417816  0.25136786  0.27424769    -0.23100
C305        C  0.52487710  0.22629754  0.25894779    -0.00100
H306        H  0.54213182  0.29702871  0.25846513     0.13700
H307        H  0.53874899  0.25296297  0.29784912     0.13700
N308        N  0.50088766  0.75760307  0.23291792    -0.02600
C309        C  0.51017549  0.76131493  0.26137546     0.00000
C310        C  0.51551971  0.73419816  0.27505464    -0.22900
C311        C  0.51003751  0.71275573  0.25415977    -0.23100
C312        C  0.50067994  0.72751016  0.22872979    -0.00100
H313        H  0.52270383  0.73048679  0.29775407     0.13700
H314        H  0.51265296  0.68889035  0.25712077     0.13700
N315        N  0.45860421  0.76598356  0.76335823    -0.02600
C316        C  0.44518783  0.73901505  0.76737436     0.00000
C317        C  0.42255363  0.73499257  0.74711098    -0.22900
C318        C  0.42253837  0.75979131  0.72918224    -0.23100
C319        C  0.44494618  0.77847229  0.73921766    -0.00100
H320        H  0.40858397  0.71546602  0.74468981     0.13700
H321        H  0.40947519  0.76264429  0.70913898     0.13700
N322        N  0.48850169  0.23156711  0.76047263    -0.02600
C323        C  0.48325720  0.26145849  0.76239418     0.00000
C324        C  0.48532011  0.27469844  0.73464663    -0.22900
C325        C  0.49139136  0.25238612  0.71485089    -0.23100
C326        C  0.49401616  0.22638710  0.73121055    -0.00100
H327        H  0.48309328  0.29819570  0.72940376     0.13700
H328        H  0.49361348  0.25485702  0.69098766     0.13700
O329        O  0.99877117  0.41144241  0.04751735    -0.79300
O330        O  0.99944589  0.58182681  0.04665248    -0.80800
O331        O  0.04818946  0.49529113  0.08155707    -0.77800
O332        O  0.94986369  0.49968583  0.08238993    -0.76200
O333        O  0.91410880  0.50235155  0.04655009    -0.78000
O334        O  0.08404382  0.49294914  0.04587280    -0.78900
O335        O  0.99990152  0.54512766  0.08221618    -0.80300
O336        O  0.99931842  0.44811286  0.08284653    -0.80500
Eu337      Eu  0.99886202  0.49680851  0.05765745     2.39200
O338        O  0.96952406  0.52803446  0.02746954    -0.88100
O339        O  0.02804596  0.46561765  0.02760607    -0.91700
C340        C  0.99999123  0.42043616  0.07479391     1.03000
C341        C  0.99946734  0.57267886  0.07396562     1.02800
C342        C  0.07562235  0.49312272  0.07342043     1.02800
C343        C  0.92250191  0.50234256  0.07405127     1.00600
H344        H  0.04220754  0.53910425  0.03971609     0.30400
O345        O  0.02936413  0.52705168  0.02741279    -1.00400
H346        H  0.95487134  0.45527682  0.04125922     0.30400
O347        O  0.96750342  0.46704549  0.02837032    -1.03000
O348        O  0.00172910  0.58038814  0.94650703    -0.80200
O349        O  0.99574139  0.41055304  0.94931881    -0.79800
O350        O  0.08337664  0.54437349  0.99596743    -0.78200
O351        O  0.91475764  0.54706210  0.99721845    -0.81500
O352        O  0.91215166  0.45119749  0.00024338    -0.79400
O353        O  0.08168123  0.44649756  0.99527154    -0.78000
O354        O  0.04651749  0.49382373  0.91252939    -0.79600
O355        O  0.94898323  0.49620029  0.91231335    -0.81500
O356        O  0.08281011  0.49411811  0.94806617    -0.78200
O357        O  0.91378620  0.49815047  0.94861941    -0.80900
O358        O  0.04912589  0.58217672  0.99586792    -0.76600
O359        O  0.04567393  0.41064525  0.99671343    -0.76700
O360        O  0.94625973  0.41362920  0.99962274    -0.76300
O361        O  0.95043922  0.58341130  0.99688316    -0.79800
O362        O  0.00142922  0.54312392  0.91202094    -0.79200
O363        O  0.99581625  0.44723023  0.91400500    -0.77600
Eu364      Eu  0.99961805  0.55816630  0.99696845     2.39800
Eu365      Eu  0.99670686  0.43556663  0.99820479     2.39600
Eu366      Eu  0.05845319  0.49563686  0.99725573     2.38400
Eu367      Eu  0.93855376  0.49841412  0.99773617     2.39900
Eu368      Eu  0.99773760  0.49590514  0.93768882     2.39800
O369        O  0.96694948  0.46629569  0.96779468    -0.92000
O370        O  0.02866574  0.52625200  0.96708005    -0.90900
C371        C  0.00281813  0.57082351  0.91938625     1.03200
C372        C  0.99584290  0.41967982  0.92199065     1.01900
C373        C  0.07615239  0.57224479  0.99494469     1.01300
C374        C  0.92302815  0.57457160  0.99680804     1.03300
C375        C  0.91920261  0.42331102  0.00071631     1.02200
C376        C  0.07311198  0.41901875  0.99525349     1.01100
C377        C  0.07406430  0.49356644  0.92066530     1.01100
C378        C  0.92154986  0.49685355  0.92098319     1.03800
H379        H  0.03931708  0.45269488  0.95523949     0.31100
O380        O  0.02739717  0.46536017  0.96782767    -1.04100
H381        H  0.95647644  0.54061192  0.95424814     0.33200
O382        O  0.96863121  0.52817995  0.96696060    -1.06700
N383        N  0.76187390  0.51803749  0.23065053    -0.02600
C384        C  0.73170450  0.51752271  0.22821388     0.00000
C385        C  0.71851266  0.52177592  0.25564403    -0.22900
C386        C  0.74116632  0.52392803  0.27594230    -0.23100
C387        C  0.76744949  0.52129598  0.26017622    -0.00100
H388        H  0.69491682  0.52222078  0.26043812     0.13700
H389        H  0.73876945  0.52569817  0.29985484     0.13700
N390        N  0.23646472  0.47686512  0.23090530    -0.02600
C391        C  0.23122262  0.48243054  0.26024624     0.00000
C392        C  0.25749553  0.48564456  0.27575099    -0.22900
C393        C  0.27997326  0.48192036  0.25556993    -0.23100
C394        C  0.26674931  0.47606586  0.22839347    -0.00100
H395        H  0.25995908  0.49044120  0.29923262     0.13700
H396        H  0.30356789  0.48346878  0.26012589     0.13700
N397        N  0.22979830  0.46679760  0.76157515    -0.02600
C398        C  0.22560042  0.45831922  0.73277614     0.00000
C399        C  0.25084906  0.44490772  0.72147797    -0.22900
C400        C  0.27149878  0.44505975  0.74394599    -0.23100
C401        C  0.25806907  0.45820570  0.76833996    -0.00100
H402        H  0.25432513  0.43729220  0.69888035     0.13700
H403        H  0.29436133  0.43761917  0.74232625     0.13700
N404        N  0.76514810  0.47585385  0.76108375    -0.02600
C405        C  0.73802418  0.46410234  0.76758838     0.00000
C406        C  0.72490734  0.45290725  0.74210190    -0.22900
C407        C  0.74464895  0.45736761  0.71922632    -0.23100
C408        C  0.76904388  0.47154754  0.73139465    -0.00100
H409        H  0.70250815  0.44430132  0.74005264     0.13700
H410        H  0.74106211  0.45216815  0.69597829     0.13700
N411        N  0.26419963  0.26398721  0.96927528    -0.02600
C412        C  0.26944738  0.23407598  0.96750119     0.00000
C413        C  0.24326136  0.21859879  0.96332708    -0.22900
C414        C  0.22090391  0.23940148  0.96327664    -0.23100
C415        C  0.23418316  0.26697711  0.96713803    -0.00100
H416        H  0.24067938  0.19461416  0.96163192     0.13700
H417        H  0.19729519  0.23483063  0.96206615     0.13700
O418        O  0.50272842  0.44933399  0.07877540    -0.79300
O419        O  0.49583345  0.44775124  0.90836712    -0.80800
O420        O  0.44989377  0.41269936  0.99371782    -0.77800
O421        O  0.54868384  0.41466473  0.99015155    -0.76200
O422        O  0.58423035  0.45096070  0.99078501    -0.78000
O423        O  0.41422730  0.44889861  0.99165876    -0.78900
O424        O  0.49731002  0.41296503  0.94557640    -0.80300
O425        O  0.50138890  0.41419559  0.04227701    -0.80500
Eu426      Eu  0.49895311  0.43815398  0.99338184     2.39200
O427        O  0.52834149  0.46870875  0.96253284    -0.88100
O428        O  0.46813449  0.46773948  0.02349485    -0.91700
C429        C  0.50371981  0.42186415  0.06975452     1.03000
C430        C  0.49523966  0.42046806  0.91805295     1.02800
C431        C  0.42244940  0.42138796  0.99189794     1.02800
C432        C  0.57609582  0.42327443  0.98960381     1.00600
H433        H  0.45620518  0.45520996  0.95082156     0.30400
O434        O  0.46869354  0.46794939  0.96278483    -1.00400
H435        H  0.54177661  0.45646455  0.03566374     0.30400
O436        O  0.52875363  0.46867322  0.02360936    -1.03000
O437        O  0.49351282  0.54726365  0.90633247    -0.80200
O438        O  0.49652934  0.54860607  0.07687738    -0.79800
O439        O  0.41276036  0.49636906  0.94476747    -0.78200
O440        O  0.58328370  0.50015238  0.94498511    -0.81500
O441        O  0.58212352  0.49947611  0.04244075    -0.79400
O442        O  0.41324576  0.49262844  0.04096112    -0.78000
O443        O  0.44649298  0.58283440  0.99205400    -0.79600
O444        O  0.54463272  0.58416997  0.99281206    -0.81500
O445        O  0.41201512  0.54582844  0.99255171    -0.78200
O446        O  0.58104100  0.54885190  0.99580846    -0.80900
O447        O  0.44771920  0.49599017  0.90784740    -0.76600
O448        O  0.44847955  0.49232091  0.07762967    -0.76700
O449        O  0.54642082  0.50053411  0.07827586    -0.76300
O450        O  0.54818661  0.49823633  0.90810433    -0.79800
O451        O  0.49365711  0.58344032  0.94235968    -0.79200
O452        O  0.49625207  0.58360436  0.03963760    -0.77600
Eu453      Eu  0.49783592  0.49807015  0.93123915     2.39800
Eu454      Eu  0.49766524  0.49851557  0.05376012     2.39600
Eu455      Eu  0.43808202  0.49771818  0.99280783     2.38400
Eu456      Eu  0.55791177  0.49941672  0.99302846     2.39900
Eu457      Eu  0.49615059  0.55884794  0.99143652     2.39800
O458        O  0.52652192  0.52917855  0.02238013    -0.92000
O459        O  0.46689766  0.52796832  0.96133911    -0.90900
C460        C  0.49243567  0.57482853  0.91495640     1.03200
C461        C  0.49602775  0.57586541  0.06722213     1.01900
C462        C  0.42045029  0.49516795  0.91714439     1.01300
C463        C  0.57549326  0.49925443  0.91741912     1.03300
C464        C  0.57386072  0.50010484  0.07004861     1.02200
C465        C  0.42131572  0.49027196  0.06834884     1.01100
C466        C  0.41920282  0.57363701  0.99251939     1.01100
C467        C  0.57210288  0.57626460  0.99532875     1.03800
H468        H  0.45400330  0.54079593  0.03555190     0.31100
O469        O  0.46693319  0.52870800  0.02327301    -1.04100
H470        H  0.53973322  0.54192455  0.94932120     0.33200
O471        O  0.52754843  0.52912747  0.96163173    -1.06700
N472        N  0.73182990  0.73002295  0.97312701    -0.02600
C473        C  0.75944358  0.72145887  0.96415578     0.00000
C474        C  0.77349972  0.74464672  0.94944823    -0.22900
C475        C  0.75371869  0.76801323  0.94847831    -0.23100
C476        C  0.72826081  0.75826603  0.96261120    -0.00100
H477        H  0.79616805  0.74486167  0.94132117     0.13700
H478        H  0.75763798  0.78994668  0.93909934     0.13700
N479        N  0.26085748  0.73416263  0.99302537    -0.02600
C480        C  0.26500138  0.76393227  0.99755201     0.00000
C481        C  0.23912039  0.77943873  0.99122047    -0.22900
C482        C  0.21817723  0.75864617  0.98346325    -0.23100
C483        C  0.23211628  0.73108977  0.98421597    -0.00100
H484        H  0.23575100  0.80335613  0.99237343     0.13700
H485        H  0.19507574  0.76313233  0.97839993     0.13700
N486        N  0.73199668  0.26197335  0.00940384    -0.02600
C487        C  0.76159492  0.26749317  0.01191962     0.00000
C488        C  0.77696994  0.24180576  0.01934917    -0.22900
C489        C  0.75617019  0.21967396  0.02241050    -0.23100
C490        C  0.72892386  0.23271531  0.01667247    -0.00100
H491        H  0.80072062  0.23961256  0.02266185     0.13700
H492        H  0.76038399  0.19651038  0.02797316     0.13700
C493        C  0.68641133  0.32459425  0.97626142    -0.11000
C494        C  0.66587522  0.32991777  0.99914119     0.11600
C495        C  0.66482881  0.31012787  0.02379015    -0.02800
C496        C  0.68663221  0.28756592  0.02609685    -0.05500
C497        C  0.70833367  0.28329861  0.00397799    -0.16300
C498        C  0.70665985  0.30063286  0.97756431     0.02600
C499        C  0.64416288  0.35482851  0.99530152     0.12600
C500        C  0.64055571  0.31247896  0.04722921     0.63200
H501        H  0.68730696  0.27336171  0.04555489     0.12600
C502        C  0.72368526  0.29347630  0.94938038     0.55300
H503        H  0.68576786  0.33861721  0.95655802     0.08400
C504        C  0.64986613  0.38410892  0.00567212    -0.05400
C505        C  0.62729555  0.40592308  0.00299072    -0.06200
C506        C  0.59993254  0.39976979  0.98889595    -0.15700
C507        C  0.59613052  0.37137200  0.97505241    -0.01300
C508        C  0.61800759  0.34917401  0.97935214    -0.08900
C509        C  0.67988662  0.39229350  0.01891344     0.65400
H510        H  0.63080567  0.42792621  0.01234502     0.10800
C511        C  0.57005411  0.36461912  0.95460210     0.63800
H512        H  0.61487520  0.32699690  0.97022627     0.08200
F513        F  0.74347431  0.31629643  0.94325449    -0.19300
F514        F  0.70386673  0.29128518  0.92591277    -0.15500
F515        F  0.73888785  0.26668238  0.95115179    -0.19000
F516        F  0.61300238  0.30943021  0.03391779    -0.22400
F517        F  0.64187427  0.33988463  0.06127237    -0.23800
F518        F  0.64321322  0.29041790  0.06872548    -0.17800
F519        F  0.57473486  0.33874870  0.93833141    -0.20300
F520        F  0.56621164  0.38779891  0.93452941    -0.21500
F521        F  0.54438755  0.36080220  0.97109130    -0.18700
F522        F  0.68119112  0.42214890  0.02687140    -0.18700
F523        F  0.70207900  0.38698036  0.99823228    -0.22600
F524        F  0.68544824  0.37532565  0.04401088    -0.24200
C525        C  0.34311793  0.61345394  0.99846997    -0.11000
C526        C  0.35152957  0.64320719  0.99410362     0.11600
C527        C  0.38187792  0.65033214  0.99035185    -0.02800
C528        C  0.40283722  0.62694330  0.98919929    -0.05500
C529        C  0.39474054  0.59669874  0.99316461    -0.16300
C530        C  0.36400996  0.58990405  0.99842588     0.02600
C531        C  0.32781626  0.66641660  0.99335856     0.12600
C532        C  0.39219037  0.68263526  0.98913544     0.63200
H533        H  0.42601281  0.63243678  0.98576248     0.12600
C534        C  0.35262752  0.55835928  0.00424427     0.55300
H535        H  0.31968595  0.60891017  0.00178746     0.08400
C536        C  0.31257261  0.67373748  0.96673111    -0.05400
C537        C  0.29078254  0.69637692  0.96750623    -0.06200
C538        C  0.28292618  0.71071474  0.99416300    -0.15700
C539        C  0.29652039  0.70155409  0.02114637    -0.01300
C540        C  0.31957803  0.68029930  0.02008595    -0.08900
C541        C  0.31901060  0.65730344  0.93784247     0.65400
H542        H  0.27945615  0.70309246  0.94730824     0.10800
C543        C  0.28657884  0.71221919  0.05156168     0.63800
H544        H  0.33062457  0.67367590  0.04051653     0.08200
F545        F  0.35698339  0.54079533  0.97929157    -0.19300
F546        F  0.32249095  0.55791427  0.01066643    -0.15500
F547        F  0.36726248  0.54604987  0.02843290    -0.19000
F548        F  0.38718653  0.69586068  0.01649323    -0.22400
F549        F  0.37677407  0.69831408  0.96755793    -0.23800
F550        F  0.42223044  0.68481654  0.98269040    -0.17800
F551        F  0.28258686  0.68783770  0.07012928    -0.20300
F552        F  0.25994805  0.72753070  0.05069570    -0.21500
F553        F  0.30820387  0.73054365  0.06354412    -0.18700
F554        F  0.30212914  0.66825525  0.91447654    -0.18700
F555        F  0.31245653  0.62730604  0.94124649    -0.22600
F556        F  0.34867915  0.66022528  0.93029717    -0.24200
C557        C  0.61299896  0.65063565  0.00643042    -0.11000
C558        C  0.64145348  0.64289731  0.99635233     0.11600
C559        C  0.64795507  0.61291996  0.98905928    -0.02800
C560        C  0.62469649  0.59203026  0.98933869    -0.05500
C561        C  0.59539135  0.59995770  0.99729734    -0.16300
C562        C  0.58972891  0.62961312  0.00747090     0.02600
C563        C  0.66335946  0.66706535  0.99131980     0.12600
C564        C  0.67929472  0.60317243  0.98076538     0.63200
H565        H  0.62933087  0.56928085  0.98274779     0.12600
C566        C  0.55980934  0.63924784  0.02008840     0.55300
H567        H  0.60897074  0.67368528  0.01260509     0.08400
C568        C  0.66398212  0.68288627  0.96407870    -0.05400
C569        C  0.68644388  0.70407561  0.95958197    -0.06200
C570        C  0.70780660  0.71036699  0.98139348    -0.15700
C571        C  0.70572355  0.69623240  0.00959687    -0.01300
C572        C  0.68378012  0.67418037  0.01384689    -0.08900
C573        C  0.64117115  0.67726065  0.93973324     0.65400
H574        H  0.68825443  0.71527164  0.93838768     0.10800
C575        C  0.72538983  0.70389464  0.03583517     0.63800
H576        H  0.68243308  0.66249974  0.03497292     0.08200
F577        F  0.53878276  0.64056894  0.99767989    -0.19300
F578        F  0.56120167  0.66722950  0.03313125    -0.15500
F579        F  0.55079666  0.61923971  0.04177789    -0.19000
F580        F  0.69862297  0.61000217  0.00369472    -0.22400
F581        F  0.68847098  0.61771931  0.95522189    -0.23800
F582        F  0.68102593  0.57270611  0.97568762    -0.17800
F583        F  0.70792458  0.70863885  0.06079284    -0.20300
F584        F  0.74186367  0.72948306  0.03105082    -0.21500
F585        F  0.74445706  0.68028734  0.04148752    -0.18700
F586        F  0.64648351  0.69463587  0.91476812    -0.18700
F587        F  0.61304240  0.68409921  0.95015702    -0.22600
F588        F  0.64185283  0.64763149  0.93110226    -0.24200
C589        C  0.33137941  0.31295962  0.95821300    -0.11000
C590        C  0.33030316  0.33089834  0.98367112     0.11600
C591        C  0.30533137  0.32911388  0.00285140    -0.02800
C592        C  0.28401482  0.30654966  0.99771417    -0.05500
C593        C  0.28586531  0.28757128  0.97282832    -0.16300
C594        C  0.30868033  0.29258924  0.95153196     0.02600
C595        C  0.35395224  0.35378051  0.98716623     0.12600
C596        C  0.30098475  0.35130247  0.02806684     0.63200
H597        H  0.26573677  0.30347135  0.01309907     0.12600
C598        C  0.30881239  0.27955835  0.92040001     0.55300
H599        H  0.34941541  0.31615740  0.94246544     0.08400
C600        C  0.38120179  0.34773461  0.00174180    -0.05400
C601        C  0.40278047  0.37053491  0.00338475    -0.06200
C602        C  0.39854863  0.39839016  0.98943669    -0.15700
C603        C  0.37213462  0.40319299  0.97244902    -0.01300
C604        C  0.35004547  0.38101397  0.97240121    -0.08900
C605        C  0.38777593  0.31697801  0.01443372     0.65400
H606        H  0.42334072  0.36659386  0.01531629     0.10800
C607        C  0.36766025  0.43054154  0.95278688     0.63800
H608        H  0.32953273  0.38448129  0.96020645     0.08200
F609        F  0.33310970  0.26089533  0.91713741    -0.19300
F610        F  0.31122655  0.30253904  0.89988044    -0.15500
F611        F  0.28313247  0.26405086  0.91376215    -0.19000
F612        F  0.30091130  0.38012740  0.01690710    -0.22400
F613        F  0.32375651  0.34855820  0.04852140    -0.23800
F614        F  0.27425383  0.34682468  0.04273392    -0.17800
F615        F  0.34445496  0.42672590  0.93287963    -0.20300
F616        F  0.39306567  0.43567061  0.93623821    -0.21500
F617        F  0.36124821  0.45526772  0.97008308    -0.18700
F618        F  0.41566624  0.31564999  0.02743020    -0.18700
F619        F  0.38682573  0.29598624  0.99187952    -0.22600
F620        F  0.36690647  0.30961726  0.03579148    -0.24200
C621        C  0.69057881  0.45717364  0.83726761    -0.11000
C622        C  0.67279877  0.48283364  0.83429475     0.11600
C623        C  0.67899131  0.50364684  0.81137929    -0.02800
C624        C  0.70270286  0.49778937  0.79186679    -0.05500
C625        C  0.71972618  0.47157950  0.79395506    -0.16300
C626        C  0.71344378  0.45063204  0.81676179     0.02600
C627        C  0.64730722  0.48711437  0.85497576     0.12600
C628        C  0.65972912  0.53118642  0.80663766     0.63200
H629        H  0.70680679  0.51272905  0.77336674     0.12600
C630        C  0.73022031  0.42126792  0.81898222     0.55300
H631        H  0.68567701  0.44179353  0.85524365     0.08400
C632        C  0.61999140  0.47178306  0.85131134    -0.05400
C633        C  0.59660248  0.47764196  0.87133417    -0.06200
C634        C  0.59988288  0.49774627  0.89508686    -0.15700
C635        C  0.62709303  0.51371486  0.89816644    -0.01300
C636        C  0.65048532  0.50763422  0.87825347    -0.08900
C637        C  0.61576337  0.44880868  0.82681454     0.65400
H638        H  0.57587806  0.46548624  0.86934196     0.10800
C639        C  0.63208103  0.53690079  0.92232360     0.63800
H640        H  0.67168361  0.51885987  0.88079983     0.08200
F641        F  0.71863361  0.40295403  0.84097965    -0.19300
F642        F  0.75964560  0.42682024  0.82573139    -0.15500
F643        F  0.72863355  0.40597709  0.79228795    -0.19000
F644        F  0.66207841  0.55004189  0.83085531    -0.22400
F645        F  0.63032748  0.52284661  0.80316012    -0.23800
F646        F  0.66811764  0.54702358  0.78150343    -0.17800
F647        F  0.65495233  0.55624086  0.91482524    -0.20300
F648        F  0.63955348  0.52264792  0.94860905    -0.21500
F649        F  0.60676854  0.55400061  0.92656112    -0.18700
F650        F  0.58692761  0.43798169  0.82609857    -0.18700
F651        F  0.63466806  0.42488808  0.83149503    -0.22600
F652        F  0.62189995  0.46142223  0.79938841    -0.24200
C653        C  0.37238383  0.47003552  0.85136727    -0.11000
C654        C  0.34512912  0.48349246  0.85849382     0.11600
C655        C  0.34236725  0.50018082  0.88498868    -0.02800
C656        C  0.36790289  0.50467081  0.90257050    -0.05500
C657        C  0.39566553  0.49182616  0.89524095    -0.16300
C658        C  0.39769907  0.47338966  0.86951906     0.02600
C659        C  0.32002048  0.47967729  0.83737742     0.12600
C660        C  0.31238012  0.51234321  0.89496236     0.63200
H661        H  0.36616986  0.51789291  0.92266050     0.12600
C662        C  0.42573041  0.45598427  0.86187540     0.55300
H663        H  0.37355911  0.45672033  0.83127183     0.08400
C664        C  0.31725673  0.49805881  0.81188860    -0.05400
C665        C  0.29512779  0.49127924  0.79093245    -0.06200
C666        C  0.27562477  0.46710523  0.79475812    -0.15700
C667        C  0.27825999  0.44877653  0.82032679    -0.01300
C668        C  0.30042817  0.45557684  0.84147265    -0.08900
C669        C  0.33840275  0.52396151  0.80620192     0.65400
H670        H  0.29381956  0.50400750  0.77045891     0.10800
C671        C  0.25877669  0.42142660  0.82445704     0.63800
H672        H  0.30340258  0.44149978  0.86087919     0.08200
F673        F  0.44824550  0.47544828  0.85391996    -0.19300
F674        F  0.42129295  0.43653407  0.83833979    -0.15500
F675        F  0.43449323  0.43914297  0.88616565    -0.19000
F676        F  0.29273218  0.48894363  0.89910028    -0.22400
F677        F  0.30090418  0.53146999  0.87369498    -0.23800
F678        F  0.31446863  0.52787818  0.92151036    -0.17800
F679        F  0.26560902  0.40609350  0.85035883    -0.20300
F680        F  0.26253138  0.40210619  0.80073089    -0.21500
F681        F  0.22933239  0.42998470  0.82602274    -0.18700
F682        F  0.33113079  0.53943951  0.78050521    -0.18700
F683        F  0.36714226  0.51339596  0.80315634    -0.22600
F684        F  0.33742304  0.54387868  0.82965793    -0.24200
C685        C  0.35166879  0.46226477  0.10807417    -0.11000
C686        C  0.35175297  0.48036797  0.13341278     0.11600
C687        C  0.37586832  0.50003483  0.13861686    -0.02800
C688        C  0.39811488  0.50266113  0.11673718    -0.05500
C689        C  0.39753512  0.48536856  0.09070555    -0.16300
C690        C  0.37457701  0.46382525  0.08681908     0.02600
C691        C  0.32715698  0.47679930  0.15508016     0.12600
C692        C  0.37874835  0.51719041  0.16763543     0.63200
H693        H  0.41632244  0.51817626  0.11987983     0.12600
C694        C  0.37488224  0.44143360  0.06140552     0.55300
H695        H  0.33352900  0.44659067  0.10531274     0.08400
C696        C  0.30076972  0.49403757  0.15369681    -0.05400
C697        C  0.28019970  0.49191167  0.17727834    -0.06200
C698        C  0.28469749  0.47198834  0.20102133    -0.15700
C699        C  0.30942691  0.45202474  0.20013951    -0.01300
C700        C  0.33050740  0.45533136  0.17739341    -0.08900
C701        C  0.29446933  0.51437350  0.12739695     0.65400
H702        H  0.26112592  0.50668229  0.17791683     0.10800
C703        C  0.31490512  0.42652959  0.22192461     0.63800
H704        H  0.35010064  0.44114062  0.17719704     0.08200
F705        F  0.36981636  0.45585040  0.03471062    -0.19300
F706        F  0.35306285  0.41984049  0.06471412    -0.15500
F707        F  0.40212102  0.42702023  0.06053774    -0.19000
F708        F  0.38378464  0.49728452  0.19066328    -0.22400
F709        F  0.35303806  0.53310055  0.17346183    -0.23800
F710        F  0.40216946  0.53726041  0.16682924    -0.17800
F711        F  0.31580426  0.39992379  0.20627255    -0.20300
F712        F  0.29329024  0.42369875  0.24356889    -0.21500
F713        F  0.34207553  0.43063581  0.23579305    -0.18700
F714        F  0.26789894  0.52968400  0.13079225    -0.18700
F715        F  0.29260762  0.49739648  0.10176087    -0.22600
F716        F  0.31700400  0.53511007  0.12413489    -0.24200
C717        C  0.68441213  0.48175238  0.16812504    -0.11000
C718        C  0.67014640  0.50709003  0.15641276     0.11600
C719        C  0.67766058  0.53582197  0.16713680    -0.02800
C720        C  0.69915892  0.53817890  0.18957388    -0.05500
C721        C  0.71395009  0.51308755  0.20092649    -0.16300
C722        C  0.70615255  0.48424217  0.19058635     0.02600
C723        C  0.64602700  0.50295040  0.13427512     0.12600
C724        C  0.66196692  0.56384175  0.15620718     0.63200
H725        H  0.70338252  0.55970802  0.19960654     0.12600
C726        C  0.71947793  0.45628099  0.20438559     0.55300
H727        H  0.67770834  0.45996514  0.16009076     0.08400
C728        C  0.65186553  0.50022406  0.10357342    -0.05400
C729        C  0.62771408  0.49957721  0.08368306    -0.06200
C730        C  0.59781808  0.50029758  0.09350440    -0.15700
C731        C  0.59226726  0.50074026  0.12494228    -0.01300
C732        C  0.61667775  0.50256538  0.14453461    -0.08900
C733        C  0.68354902  0.49761589  0.09205472     0.65400
H734        H  0.63231391  0.49827440  0.06008396     0.10800
C735        C  0.56123833  0.49904529  0.13849867     0.63800
H736        H  0.61316345  0.50398231  0.16835084     0.08200
F737        F  0.70797649  0.43049469  0.19188285    -0.19300
F738        F  0.71353377  0.45561076  0.23460235    -0.15500
F739        F  0.74986845  0.45610684  0.20006978    -0.19000
F740        F  0.63287675  0.56384922  0.16619129    -0.22400
F741        F  0.66215235  0.56492439  0.12545751    -0.23800
F742        F  0.67568281  0.58953059  0.16652322    -0.17800
F743        F  0.56199714  0.49808749  0.16932051    -0.20300
F744        F  0.54707579  0.47333575  0.12899151    -0.21500
F745        F  0.54484258  0.52392994  0.13045211    -0.18700
F746        F  0.68456256  0.49596622  0.06129939    -0.18700
F747        F  0.69650423  0.47197829  0.10339553    -0.22600
F748        F  0.70007112  0.52211120  0.10083911    -0.24200
C749        C  0.87321404  0.64009709  0.97517033    -0.11000
C750        C  0.84726248  0.63298611  0.99104376     0.11600
C751        C  0.84628570  0.60690779  0.00873589    -0.02800
C752        C  0.87234911  0.58980249  0.01161333    -0.05500
C753        C  0.89855330  0.59682182  0.99584651    -0.16300
C754        C  0.89887403  0.62210798  0.97676913     0.02600
C755        C  0.82127953  0.65308988  0.98770621     0.12600
C756        C  0.81753722  0.59640891  0.02322434     0.63200
H757        H  0.87214794  0.57003629  0.02556061     0.12600
C758        C  0.92558801  0.62959534  0.95742176     0.55300
H759        H  0.87301570  0.65984558  0.96119410     0.08400
C760        C  0.81791362  0.67881914  0.00562742    -0.05400
C761        C  0.79505674  0.69907598  0.99875565    -0.06200
C762        C  0.77614098  0.69481551  0.97429543    -0.15700
C763        C  0.77933349  0.66886763  0.95651508    -0.01300
C764        C  0.80169789  0.64807095  0.96392019    -0.08900
C765        C  0.83979867  0.68613448  0.03035994     0.65400
H766        H  0.79335460  0.71981174  0.01102916     0.10800
C767        C  0.76037311  0.66391830  0.92903814     0.63800
H768        H  0.80516512  0.62843806  0.95025555     0.08200
F769        F  0.94894026  0.63862594  0.97526644    -0.19300
F770        F  0.91942043  0.65244130  0.93753735    -0.15500
F771        F  0.93405951  0.60482587  0.94102319    -0.19000
F772        F  0.79614940  0.59201250  0.00156772    -0.22400
F773        F  0.80724411  0.61743664  0.04321674    -0.23800
F774        F  0.82132353  0.56970731  0.03838894    -0.17800
F775        F  0.76694504  0.63705699  0.91519650    -0.20300
F776        F  0.76510116  0.68670537  0.90876710    -0.21500
F777        F  0.73072917  0.66341071  0.93692125    -0.18700
F778        F  0.83117515  0.71119134  0.04624737    -0.18700
F779        F  0.86755495  0.69154873  0.01825913    -0.22600
F780        F  0.84195379  0.66262057  0.05016834    -0.24200
C781        C  0.80223604  0.33861561  0.03068987    -0.11000
C782        C  0.81854450  0.34279479  0.00442771     0.11600
C783        C  0.81351811  0.32423949  0.97950612    -0.02800
C784        C  0.79286790  0.30095396  0.98223390    -0.05500
C785        C  0.77672593  0.29642568  0.00857023    -0.16300
C786        C  0.78130531  0.31547314  0.03328139     0.02600
C787        C  0.84351018  0.36409245  0.00485873     0.12600
C788        C  0.83077052  0.32832571  0.95062241     0.63200
H789        H  0.79038224  0.28503665  0.96428922     0.12600
C790        C  0.76537835  0.31038788  0.06268056     0.55300
H791        H  0.80705834  0.35285011  0.04956630     0.08400
C792        C  0.83952310  0.39482993  0.99965064    -0.05400
C793        C  0.86483039  0.41310493  0.99886435    -0.06200
C794        C  0.89396019  0.40161585  0.00269963    -0.15700
C795        C  0.89747679  0.37059465  0.00919211    -0.01300
C796        C  0.87191977  0.35258676  0.01042130    -0.08900
C797        C  0.80867518  0.40820191  0.99529352     0.65400
H798        H  0.86169559  0.43678135  0.99535347     0.10800
C799        C  0.92751690  0.35609545  0.01526747     0.63800
H800        H  0.87382472  0.32890163  0.01508423     0.08200
F801        F  0.77421773  0.33064239  0.08419476    -0.19300
F802        F  0.77128872  0.28195985  0.07327259    -0.15500
F803        F  0.73512967  0.31361319  0.05865507    -0.19000
F804        F  0.86067888  0.32290429  0.95530246    -0.22400
F805        F  0.82730498  0.35719547  0.94022098    -0.23800
F806        F  0.82100596  0.30904728  0.92863571    -0.17800
F807        F  0.92480861  0.32621764  0.02286610    -0.20300
F808        F  0.94138060  0.37040506  0.03875664    -0.21500
F809        F  0.94517277  0.35757982  0.99006994    -0.18700
F810        F  0.80983758  0.43857111  0.98950610    -0.18700
F811        F  0.79190580  0.40400448  0.02075355    -0.22600
F812        F  0.79445112  0.39459017  0.97165617    -0.24200
C813        C  0.14887447  0.60954877  0.97200777    -0.11000
C814        C  0.14789869  0.63584086  0.98872929     0.11600
C815        C  0.12238364  0.64262234  0.00593595    -0.02800
C816        C  0.09949964  0.62114997  0.00793878    -0.05500
C817        C  0.10087265  0.59413126  0.99195683    -0.16300
C818        C  0.12539907  0.58887675  0.97257756     0.02600
C819        C  0.17285152  0.65714879  0.98554966     0.12600
C820        C  0.11877385  0.67306958  0.02058456     0.63200
H821        H  0.08016660  0.62549970  0.02167164     0.12600
C822        C  0.12626143  0.56252318  0.95124199     0.55300
H823        H  0.16814515  0.60559386  0.95804748     0.08400
C824        C  0.19711218  0.65772527  0.00560254    -0.05400
C825        C  0.21783604  0.68112245  0.00315253    -0.06200
C826        C  0.21580156  0.70256766  0.98037351    -0.15700
C827        C  0.19401857  0.69901254  0.95780147    -0.01300
C828        C  0.17220305  0.67695130  0.96141654    -0.08900
C829        C  0.20096281  0.63394413  0.02948163     0.65400
H830        H  0.23464818  0.68371625  0.02011454     0.10800
C831        C  0.19264107  0.71802251  0.92981930     0.63800
H832        H  0.15433718  0.67520392  0.94528868     0.08200
F833        F  0.13205333  0.53643410  0.96670451    -0.19300
F834        F  0.14815755  0.56588065  0.92981019    -0.15500
F835        F  0.09930691  0.56012924  0.93659220    -0.19000
F836        F  0.11790408  0.69495764  0.99883723    -0.22400
F837        F  0.14229168  0.67896076  0.03945692    -0.23800
F838        F  0.09280186  0.67486600  0.03704127    -0.17800
F839        F  0.18861686  0.69978183  0.90528575    -0.20300
F840        F  0.21845455  0.73415708  0.92513942    -0.21500
F841        F  0.16882538  0.73752086  0.93174038    -0.18700
F842        F  0.22697684  0.63799095  0.04548323    -0.18700
F843        F  0.20214194  0.60605130  0.01633253    -0.22600
F844        F  0.17743926  0.63459928  0.04925392    -0.24200
C845        C  0.18814289  0.33758496  0.95944791    -0.11000
C846        C  0.17095486  0.33561094  0.98539884     0.11600
C847        C  0.17628641  0.31250677  0.00619532    -0.02800
C848        C  0.19956774  0.29239978  0.00054793    -0.05500
C849        C  0.21634644  0.29378660  0.97419878    -0.16300
C850        C  0.21059524  0.31664623  0.95314063     0.02600
C851        C  0.14607230  0.35686678  0.98899502     0.12600
C852        C  0.15648901  0.30815193  0.03330303     0.63200
H853        H  0.20367677  0.27408829  0.01581912     0.12600
C854        C  0.22720258  0.31850194  0.92381555     0.55300
H855        H  0.18313422  0.35527258  0.94373425     0.08400
C856        C  0.15034790  0.38574869  0.00073544    -0.05400
C857        C  0.12555688  0.40457028  0.00353809    -0.06200
C858        C  0.09705332  0.39607536  0.99351032    -0.15700
C859        C  0.09321475  0.36733061  0.98047294    -0.01300
C860        C  0.11793972  0.34810623  0.97892205    -0.08900
C861        C  0.18108148  0.39689093  0.00943649     0.65400
H862        H  0.12853277  0.42653075  0.01316582     0.10800
C863        C  0.06394204  0.35718077  0.96685568     0.63800
H864        H  0.11573979  0.32603483  0.96929266     0.08200
F865        F  0.25651085  0.32579610  0.92913695    -0.19300
F866        F  0.21535961  0.34016983  0.90522515    -0.15500
F867        F  0.22578337  0.29143121  0.90907463    -0.19000
F868        F  0.12783513  0.30158563  0.02426053    -0.22400
F869        F  0.15601805  0.33386172  0.05030869    -0.23800
F870        F  0.16632376  0.28490288  0.05115019    -0.17800
F871        F  0.06653127  0.32969144  0.95295559    -0.20300
F872        F  0.05470729  0.37767245  0.94569972    -0.21500
F873        F  0.04249324  0.35438642  0.98870959    -0.18700
F874        F  0.18012662  0.42547350  0.02119519    -0.18700
F875        F  0.19927024  0.39753008  0.98460886    -0.22600
F876        F  0.19350452  0.37816696  0.03053593    -0.24200
C877        C  0.81668334  0.51229291  0.81667303    -0.11000
C878        C  0.83354496  0.48759059  0.82592179     0.11600
C879        C  0.82791875  0.45916211  0.81331974    -0.02800
C880        C  0.80560384  0.45661712  0.79153154    -0.05500
C881        C  0.78851218  0.48122286  0.78240484    -0.16300
C882        C  0.79436324  0.50971822  0.79486315     0.02600
C883        C  0.85597584  0.49182012  0.84989992     0.12600
C884        C  0.84505203  0.43157898  0.82319498     0.63200
H885        H  0.80070973  0.43510662  0.78167149     0.12600
C886        C  0.77819303  0.53805833  0.78616867     0.55300
H887        H  0.82098208  0.53389588  0.82670822     0.08400
C888        C  0.88517395  0.50187911  0.84408187    -0.05400
C889        C  0.90563502  0.50345017  0.86787177    -0.06200
C890        C  0.89765814  0.49595039  0.89740812    -0.15700
C891        C  0.86760424  0.48707486  0.90307451    -0.01300
C892        C  0.84747499  0.48532936  0.87911033    -0.08900
C893        C  0.89433653  0.51137133  0.81289881     0.65400
H894        H  0.92812232  0.51085273  0.86344049     0.10800
C895        C  0.85650264  0.47839708  0.93382060     0.63800
H896        H  0.82469486  0.47838155  0.88282311     0.08200
F897        F  0.75728622  0.53357183  0.76426528    -0.19300
F898        F  0.79859765  0.55871408  0.77576226    -0.15500
F899        F  0.76402818  0.54974373  0.81091414    -0.19000
F900        F  0.83968545  0.42602703  0.85299446    -0.22400
F901        F  0.87520766  0.43590205  0.81904582    -0.23800
F902        F  0.83678861  0.40645173  0.80726394    -0.17800
F903        F  0.82750376  0.46798955  0.93330314    -0.20300
F904        F  0.85720774  0.50296115  0.95249154    -0.21500
F905        F  0.87416584  0.45578255  0.94506358    -0.18700
F906        F  0.92406992  0.51924956  0.81152925    -0.18700
F907        F  0.87761135  0.53581468  0.80419354    -0.22600
F908        F  0.88965342  0.48833072  0.79296409    -0.24200
C909        C  0.11818533  0.50335722  0.84827774    -0.11000
C910        C  0.14304413  0.48537716  0.85395365     0.11600
C911        C  0.14627671  0.47160535  0.88215025    -0.02800
C912        C  0.12313620  0.47469118  0.90313686    -0.05500
C913        C  0.09746663  0.49177495  0.89712002    -0.16300
C914        C  0.09534038  0.50708878  0.86940570     0.02600
C915        C  0.16476340  0.48085496  0.82937934     0.12600
C916        C  0.17448480  0.45473650  0.89038191     0.63200
H917        H  0.12496841  0.46370034  0.92455389     0.12600
C918        C  0.06945854  0.52760156  0.86188887     0.55300
H919        H  0.11655058  0.51400803  0.82666558     0.08400
C920        C  0.16143093  0.45739575  0.80854692    -0.05400
C921        C  0.18331728  0.45367188  0.78650915    -0.06200
C922        C  0.20657421  0.47424473  0.78265276    -0.15700
C923        C  0.20743052  0.49994931  0.80113660    -0.01300
C924        C  0.18746559  0.50193606  0.82524887    -0.08900
C925        C  0.13445314  0.43696653  0.80901552     0.65400
H926        H  0.18282432  0.43415977  0.77242257     0.10800
C927        C  0.22710112  0.52670583  0.79526617     0.63800
H928        H  0.18867922  0.52092342  0.84018396     0.08200
F929        F  0.04439011  0.51074155  0.85605963    -0.19300
F930        F  0.07536083  0.54495245  0.83702667    -0.15500
F931        F  0.06386095  0.54680962  0.88531973    -0.19000
F932        F  0.19817282  0.47442113  0.89075909    -0.22400
F933        F  0.18029327  0.43243853  0.86993054    -0.23800
F934        F  0.17235410  0.44155479  0.91821891    -0.17800
F935        F  0.20972873  0.55225629  0.79438512    -0.20300
F936        F  0.24179683  0.52469776  0.76841502    -0.21500
F937        F  0.24766081  0.52959092  0.81795424    -0.18700
F938        F  0.13559368  0.41586754  0.78650905    -0.18700
F939        F  0.10894532  0.45379456  0.80501026    -0.22600
F940        F  0.13260348  0.42206007  0.83589637    -0.24200
C941        C  0.11753811  0.47742729  0.14674029    -0.11000
C942        C  0.14654173  0.48589894  0.13908690     0.11600
C943        C  0.15243769  0.49611407  0.10986871    -0.02800
C944        C  0.12869963  0.49827023  0.08940694    -0.05500
C945        C  0.09921733  0.49060182  0.09710009    -0.16300
C946        C  0.09358149  0.47988703  0.12658048     0.02600
C947        C  0.17012951  0.48414956  0.16248033     0.12600
C948        C  0.18372572  0.50481900  0.10045232     0.63200
H949        H  0.13311346  0.50631579  0.06710770     0.12600
C950        C  0.06276781  0.47053550  0.13710007     0.55300
H951        H  0.11379452  0.46925969  0.16913638     0.08400
C952        C  0.17311780  0.50644060  0.18461102    -0.05400
C953        C  0.19562128  0.50329996  0.20618511    -0.06200
C954        C  0.21436418  0.47813298  0.20735535    -0.15700
C955        C  0.21071254  0.45530852  0.18562498    -0.01300
C956        C  0.18899845  0.45911362  0.16323168    -0.08900
C957        C  0.15262576  0.53348942  0.18544250     0.65400
H958        H  0.19887669  0.52068714  0.22255181     0.10800
C959        C  0.22835092  0.42638805  0.18532959     0.63800
H960        H  0.18615889  0.44192331  0.14648009     0.08200
F961        F  0.04408236  0.49513103  0.13791021    -0.19300
F962        F  0.06326417  0.45833065  0.16542868    -0.15500
F963        F  0.05137442  0.44910634  0.11814284    -0.19000
F964        F  0.20255980  0.48053672  0.10321872    -0.22400
F965        F  0.19404839  0.52774879  0.11824985    -0.23800
F966        F  0.18473239  0.51438218  0.07114884    -0.17800
F967        F  0.20958936  0.40254987  0.17970695    -0.20300
F968        F  0.24221579  0.42071812  0.21212499    -0.21500
F969        F  0.24950398  0.42768094  0.16299804    -0.18700
F970        F  0.15990163  0.55283689  0.20833350    -0.18700
F971        F  0.12355132  0.52442865  0.18972841    -0.22600
F972        F  0.15453896  0.54906827  0.15892995    -0.24200
C973        C  0.87947549  0.52021880  0.14592980    -0.11000
C974        C  0.85104116  0.50983769  0.13859008     0.11600
C975        C  0.84563961  0.49855362  0.10971854    -0.02800
C976        C  0.86960822  0.49641294  0.08960678    -0.05500
C977        C  0.89869981  0.50540871  0.09726644    -0.16300
C978        C  0.90361269  0.51801030  0.12601713     0.02600
C979        C  0.82755715  0.51087249  0.16197890     0.12600
C980        C  0.81470161  0.48873737  0.10028622     0.63200
H981        H  0.86572124  0.48725907  0.06765525     0.12600
C982        C  0.93384861  0.52937385  0.13604033     0.55300
H983        H  0.88270242  0.52948046  0.16796150     0.08400
C984        C  0.82615238  0.48937793  0.18511481    -0.05400
C985        C  0.80387882  0.49220974  0.20704743    -0.06200
C986        C  0.78375146  0.51625134  0.20708805    -0.15700
C987        C  0.78658121  0.53878758  0.18490379    -0.01300
C988        C  0.80778273  0.53506626  0.16216839    -0.08900
C989        C  0.84828967  0.46374098  0.18665962     0.65400
H990        H  0.80204573  0.47573116  0.22460067     0.10800
C991        C  0.76969671  0.56815752  0.18513851     0.63800
H992        H  0.80989330  0.55203876  0.14503761     0.08200
F993        F  0.95323063  0.50558254  0.13947243    -0.19300
F994        F  0.93229532  0.54422564  0.16302831    -0.15500
F995        F  0.94501926  0.54923626  0.11530079    -0.19000
F996        F  0.79529661  0.51268393  0.10179011    -0.22400
F997        F  0.80466627  0.46629102  0.11890936    -0.23800
F998        F  0.81432931  0.47801027  0.07138027    -0.17800
F999        F  0.78952281  0.59157804  0.18196304    -0.20300
F1000       F  0.75431947  0.57298501  0.21128665    -0.21500
F1001       F  0.75010362  0.56878645  0.16142029    -0.18700
F1002       F  0.84212618  0.44448977  0.20999102    -0.18700
F1003       F  0.87669576  0.47479340  0.19078100    -0.22600
F1004       F  0.84750231  0.44751811  0.16049458    -0.24200
C1005       C  0.46139299  0.32528315  0.81210884    -0.11000
C1006       C  0.48515189  0.32504714  0.83216749     0.11600
C1007       C  0.50499334  0.30047560  0.83284844    -0.02800
C1008       C  0.50191928  0.27810067  0.81116970    -0.05500
C1009       C  0.47929088  0.27931425  0.78971747    -0.16300
C1010       C  0.45774363  0.30253105  0.79107641     0.02600
C1011       C  0.48759086  0.35017099  0.85327513     0.12600
C1012       C  0.53000177  0.29854587  0.85551994     0.63200
H1013       H  0.51864988  0.26088014  0.80947517     0.12600
C1014       C  0.43140411  0.30513153  0.77002893     0.55300
H1015       H  0.44568170  0.34369543  0.81272054     0.08400
C1016       C  0.50059770  0.37785928  0.84542043    -0.05400
C1017       C  0.50279745  0.40018695  0.86728356    -0.06200
C1018       C  0.49159347  0.39588541  0.89617411    -0.15700
C1019       C  0.47644838  0.36869952  0.90309083    -0.01300
C1020       C  0.47512500  0.34626080  0.88142902    -0.08900
C1021       C  0.51191382  0.38381575  0.81412410     0.65400
H1022       H  0.51348848  0.42119901  0.86195958     0.10800
C1023       C  0.46028801  0.36347997  0.93237269     0.63800
H1024       H  0.46428002  0.32518547  0.88625573     0.08200
F1025       F  0.43677670  0.32768108  0.74963674    -0.19300
F1026       F  0.40601850  0.31220412  0.78597773    -0.15500
F1027       F  0.42575385  0.27891002  0.75486631    -0.19000
F1028       F  0.51838831  0.29827245  0.88401646    -0.22400
F1029       F  0.54868156  0.32287294  0.85245468    -0.23800
F1030       F  0.54679668  0.27282005  0.85198855    -0.17800
F1031       F  0.44236961  0.33832909  0.93150746    -0.20300
F1032       F  0.44211683  0.38762819  0.93828658    -0.21500
F1033       F  0.48054146  0.35953763  0.95520792    -0.18700
F1034       F  0.52409125  0.41210737  0.81144180    -0.18700
F1035       F  0.48870246  0.38169666  0.79406544    -0.22600
F1036       F  0.53356544  0.36316024  0.80675181    -0.24200
C1037       C  0.47639936  0.66658840  0.79947883    -0.11000
C1038       C  0.46779786  0.66887376  0.82938162     0.11600
C1039       C  0.45333818  0.69518380  0.83942815    -0.02800
C1040       C  0.44682148  0.71795045  0.81868875    -0.05500
C1041       C  0.45488440  0.71541959  0.78862307    -0.16300
C1042       C  0.47009061  0.68939523  0.77875466     0.02600
C1043       C  0.47466812  0.64349691  0.84980662     0.12600
C1044       C  0.44481679  0.69910256  0.87192178     0.63200
H1045       H  0.43484631  0.73767566  0.82574765     0.12600
C1046       C  0.47984611  0.68572896  0.74651743     0.55300
H1047       H  0.48793043  0.64652347  0.79247984     0.08400
C1048       C  0.45617335  0.61793546  0.85189774    -0.05400
C1049       C  0.46320033  0.59569527  0.87303528    -0.06200
C1050       C  0.48803661  0.59821634  0.89184156    -0.15700
C1051       C  0.50734830  0.62307108  0.88861385    -0.01300
C1052       C  0.50033541  0.64526083  0.86744471    -0.08900
C1053       C  0.42927850  0.61411678  0.83178410     0.65400
H1054       H  0.44898303  0.57630690  0.87544652     0.10800
C1055       C  0.53533584  0.62611235  0.90722991     0.63800
H1056       H  0.51452460  0.66465232  0.86492516     0.08200
F1057       F  0.49535515  0.65934385  0.74212742    -0.19300
F1058       F  0.49815625  0.70916627  0.73842475    -0.15500
F1059       F  0.45538527  0.68530073  0.72793311    -0.19000
F1060       F  0.47014998  0.69907460  0.88934797    -0.22400
F1061       F  0.42646045  0.67601334  0.88089737    -0.23800
F1062       F  0.42993953  0.72577033  0.87677729    -0.17800
F1063       F  0.55175090  0.59997068  0.90591475    -0.20300
F1064       F  0.52772517  0.63191854  0.93644900    -0.21500
F1065       F  0.55322933  0.64923035  0.89725345    -0.18700
F1066       F  0.41329487  0.58859910  0.83873746    -0.18700
F1067       F  0.43852545  0.61187184  0.80251413    -0.22600
F1068       F  0.41039912  0.63836871  0.83453236    -0.24200
C1069       C  0.47743690  0.64819952  0.10729744    -0.11000
C1070       C  0.49694535  0.64661068  0.13141946     0.11600
C1071       C  0.51539028  0.62123437  0.13536727    -0.02800
C1072       C  0.51453424  0.59855584  0.11377998    -0.05500
C1073       C  0.49528437  0.60029414  0.08924660    -0.16300
C1074       C  0.47589380  0.62522340  0.08618373     0.02600
C1075       C  0.49512296  0.67046681  0.15390830     0.12600
C1076       C  0.53549051  0.61802007  0.16241939     0.63200
H1077       H  0.52894357  0.57927097  0.11585431     0.12600
C1078       C  0.45272356  0.62720709  0.06162119     0.55300
H1079       H  0.46300666  0.66752726  0.10547018     0.08400
C1080       C  0.51101745  0.69761076  0.15140381    -0.05400
C1081       C  0.51029504  0.71762483  0.17553359    -0.06200
C1082       C  0.49346911  0.71134399  0.20113897    -0.15700
C1083       C  0.47495218  0.68563688  0.20186769    -0.01300
C1084       C  0.47655461  0.66541437  0.17829407    -0.08900
C1085       C  0.52878187  0.70503987  0.12361373     0.65400
H1086       H  0.52420476  0.73735328  0.17524343     0.10800
C1087       C  0.45408449  0.67758418  0.22731111     0.63800
H1088       H  0.46361188  0.64497262  0.17919146     0.08200
F1089       F  0.46643529  0.63314199  0.03470870    -0.19300
F1090       F  0.43227474  0.64975569  0.06693497    -0.15500
F1091       F  0.43718471  0.60060094  0.05976451    -0.19000
F1092       F  0.51848661  0.61700575  0.18805842    -0.22400
F1093       F  0.55472546  0.64203988  0.16407789    -0.23800
F1094       F  0.55236690  0.59213275  0.16126178    -0.17800
F1095       F  0.42651306  0.67000257  0.21591889    -0.20300
F1096       F  0.44972752  0.70063667  0.24724698    -0.21500
F1097       F  0.46547402  0.65323492  0.24251461    -0.18700
F1098       F  0.54442057  0.73149390  0.12669329    -0.18700
F1099       F  0.50963290  0.70806378  0.09971761    -0.22600
F1100       F  0.54895813  0.68250718  0.11754804    -0.24200
C1101       C  0.54609233  0.32201974  0.17050193    -0.11000
C1102       C  0.51785537  0.32834628  0.15894943     0.11600
C1103       C  0.49363706  0.30933580  0.16596741    -0.02800
C1104       C  0.49803096  0.28604689  0.18671526    -0.05500
C1105       C  0.52603602  0.28074919  0.19948326    -0.16300
C1106       C  0.55080055  0.29800852  0.19009190     0.02600
C1107       C  0.51504640  0.35311775  0.13707376     0.12600
C1108       C  0.46346598  0.31360079  0.15135352     0.63200
H1109       H  0.47940688  0.27252785  0.19396826     0.12600
C1110       C  0.58257390  0.29206513  0.20001017     0.55300
H1111       H  0.56477658  0.33579774  0.16379768     0.08400
C1112       C  0.50865631  0.38293390  0.14535486    -0.05400
C1113       C  0.50449553  0.40443997  0.12273804    -0.06200
C1114       C  0.50825054  0.39746338  0.09231968    -0.15700
C1115       C  0.51739513  0.36777681  0.08457441    -0.01300
C1116       C  0.51988784  0.34619855  0.10719674    -0.08900
C1117       C  0.50730125  0.39212631  0.17788517     0.65400
H1118       H  0.49857827  0.42706811  0.12884903     0.10800
C1119       C  0.52552785  0.35837387  0.05301194     0.63800
H1120       H  0.52576065  0.32334855  0.10180365     0.08200
F1121       F  0.60083283  0.29045989  0.17525278    -0.19300
F1122       F  0.58575033  0.26551310  0.21547314    -0.15500
F1123       F  0.59207287  0.31531084  0.21788582    -0.19000
F1124       F  0.46598637  0.30882399  0.12104986    -0.22400
F1125       F  0.45315342  0.34230834  0.15611936    -0.23800
F1126       F  0.44252535  0.29387073  0.16248403    -0.17800
F1127       F  0.54672399  0.37761375  0.04158662    -0.20300
F1128       F  0.50044514  0.35842658  0.03517748    -0.21500
F1129       F  0.53749567  0.32986016  0.05201397    -0.18700
F1130       F  0.50072479  0.42219872  0.18111477    -0.18700
F1131       F  0.53457013  0.38683413  0.19112630    -0.22600
F1132       F  0.48575384  0.37591595  0.19272841    -0.24200
C1133       C  0.60948431  0.15070609  0.99877211    -0.11000
C1134       C  0.63869295  0.14374952  0.00657347     0.11600
C1135       C  0.64699435  0.11365675  0.01160173    -0.02800
C1136       C  0.62505687  0.09141631  0.00941646    -0.05500
C1137       C  0.59564410  0.09816997  0.00096083    -0.16300
C1138       C  0.58809902  0.12846321  0.99410457     0.02600
C1139       C  0.66000037  0.16878452  0.00876265     0.12600
C1140       C  0.67879141  0.10499955  0.01916823     0.63200
H1141       H  0.63087522  0.06848817  0.01449497     0.12600
C1142       C  0.55848191  0.13783691  0.98050383     0.55300
H1143       H  0.60377150  0.17402369  0.99562000     0.08400
C1144       C  0.67084510  0.18384726  0.98317183    -0.05400
C1145       C  0.69133295  0.20717028  0.98708871    -0.06200
C1146       C  0.70137340  0.21525181  0.01543905    -0.15700
C1147       C  0.68934731  0.20125553  0.04105128    -0.01300
C1148       C  0.66859902  0.17824868  0.03718000    -0.08900
C1149       C  0.66197514  0.17447837  0.95187573     0.65400
H1150       H  0.70112348  0.21809659  0.96791167     0.10800
C1151       C  0.69774962  0.20931476  0.07278931     0.63800
H1152       H  0.65930037  0.16721110  0.05657536     0.08200
F1153       F  0.55229058  0.12014605  0.95604418    -0.19300
F1154       F  0.55884473  0.16722602  0.97079557    -0.15500
F1155       F  0.53599358  0.13535437  0.00130396    -0.19000
F1156       F  0.68584782  0.11499363  0.04739064    -0.22400
F1157       F  0.69820828  0.11755223  0.99881180    -0.23800
F1158       F  0.68284881  0.07431325  0.01849769    -0.17800
F1159       F  0.67221638  0.21618080  0.08859970    -0.20300
F1160       F  0.71664431  0.23358632  0.07462110    -0.21500
F1161       F  0.71147430  0.18506235  0.08609580    -0.18700
F1162       F  0.67744814  0.19027665  0.93035020    -0.18700
F1163       F  0.63200669  0.17963578  0.94738834    -0.22600
F1164       F  0.66788036  0.14441572  0.94784687    -0.24200
C1165       C  0.38570951  0.84592921  0.02511250    -0.11000
C1166       C  0.36128433  0.84585179  0.00582623     0.11600
C1167       C  0.35577111  0.87090058  0.98732164    -0.02800
C1168       C  0.37644566  0.89443962  0.98707953    -0.05500
C1169       C  0.40184061  0.89389668  0.00515379    -0.16300
C1170       C  0.40598649  0.86983001  0.02550096     0.02600
C1171       C  0.34009171  0.82060511  0.00749211     0.12600
C1172       C  0.32780615  0.87302809  0.96844522     0.63200
H1173       H  0.37302317  0.91342507  0.97255757     0.12600
C1174       C  0.43085848  0.86979141  0.04838657     0.55300
H1175       H  0.38866899  0.82707506  0.03998096     0.08400
C1176       C  0.34227877  0.79516049  0.98892476    -0.05400
C1177       C  0.31831073  0.77485737  0.98833483    -0.06200
C1178       C  0.29297527  0.77919434  0.00619445    -0.15700
C1179       C  0.29291346  0.80268442  0.02752712    -0.01300
C1180       C  0.31636916  0.82322559  0.02739692    -0.08900
C1181       C  0.36937794  0.79006385  0.96935646     0.65400
H1182       H  0.31828926  0.75684340  0.97228549     0.10800
C1183       C  0.26822339  0.80816830  0.05000256     0.63800
H1184       H  0.31562889  0.84228656  0.04229560     0.08200
F1185       F  0.45773138  0.86402585  0.03458827    -0.19300
F1186       F  0.42658989  0.84817479  0.07005828    -0.15500
F1187       F  0.43196072  0.89723190  0.06249376    -0.19000
F1188       F  0.30300804  0.87294411  0.98664373    -0.22400
F1189       F  0.32616257  0.84911546  0.94910389    -0.23800
F1190       F  0.32716911  0.89897304  0.95171338    -0.17800
F1191       F  0.28050520  0.81265117  0.07788815    -0.20300
F1192       F  0.24859267  0.78460123  0.05236376    -0.21500
F1193       F  0.25258715  0.83355109  0.04192891    -0.18700
F1194       F  0.36735625  0.76354281  0.95364736    -0.18700
F1195       F  0.39463164  0.78880824  0.98687229    -0.22600
F1196       F  0.37240829  0.81311588  0.94909165    -0.24200
C1197       C  0.66397057  0.81240131  0.95244398    -0.11000
C1198       C  0.66220567  0.82456374  0.98108093     0.11600
C1199       C  0.67957423  0.81225348  0.00436139    -0.02800
C1200       C  0.69940540  0.78885651  0.99761121    -0.05500
C1201       C  0.70254833  0.77796707  0.96848838    -0.16300
C1202       C  0.68418210  0.78953047  0.94549148     0.02600
C1203       C  0.64124232  0.84966944  0.98602914     0.12600
C1204       C  0.67766343  0.82424673  0.03595163     0.63200
H1205       H  0.71362761  0.77974966  0.01483117     0.12600
C1206       C  0.68448686  0.77885253  0.91341129     0.55300
H1207       H  0.64976526  0.82139835  0.93508370     0.08400
C1208       C  0.64771221  0.87932621  0.97712902    -0.05400
C1209       C  0.62590632  0.90154364  0.98137543    -0.06200
C1210       C  0.59831342  0.89509999  0.99476593    -0.15700
C1211       C  0.59275984  0.86547784  0.00512230    -0.01300
C1212       C  0.61405824  0.84319580  0.99960654    -0.08900
C1213       C  0.67743350  0.88741435  0.96314486     0.65400
H1214       H  0.63009955  0.92407619  0.97362572     0.10800
C1215       C  0.56538239  0.85724319  0.02324544     0.63800
H1216       H  0.60970843  0.82025934  0.00599552     0.08200
F1217       F  0.69007544  0.80286547  0.89481329    -0.19300
F1218       F  0.65682982  0.76721858  0.90651909    -0.15500
F1219       F  0.70557096  0.75715166  0.90771074    -0.19000
F1220       F  0.64996111  0.81808698  0.04781023    -0.22400
F1221       F  0.68209041  0.85482393  0.03600174    -0.23800
F1222       F  0.69888971  0.81145773  0.05431264    -0.17800
F1223       F  0.56805419  0.82919443  0.03602930    -0.20300
F1224       F  0.54038007  0.85690072  0.00532425    -0.21500
F1225       F  0.56168100  0.87765940  0.04605871    -0.18700
F1226       F  0.68044028  0.91799028  0.95940390    -0.18700
F1227       F  0.68000396  0.87405003  0.93553634    -0.22600
F1228       F  0.70046046  0.87772086  0.98113970    -0.24200
C1229       C  0.35215893  0.11964685  0.97294364    -0.11000
C1230       C  0.36374525  0.14856475  0.97583906     0.11600
C1231       C  0.39379375  0.15250026  0.98387173    -0.02800
C1232       C  0.41145287  0.12703099  0.98849380    -0.05500
C1233       C  0.40030871  0.09763196  0.98535896    -0.16300
C1234       C  0.36980957  0.09391641  0.97726510     0.02600
C1235       C  0.34294821  0.17414770  0.97288868     0.12600
C1236       C  0.40725501  0.18349122  0.98739631     0.63200
H1237       H  0.43445342  0.13023416  0.99473506     0.12600
C1238       C  0.35543265  0.06343658  0.97312942     0.55300
H1239       H  0.32878391  0.11751098  0.96751317     0.08400
C1240       C  0.33283382  0.18450387  0.94490217    -0.05400
C1241       C  0.31020230  0.20613387  0.94423131    -0.06200
C1242       C  0.29821981  0.21835583  0.97036246    -0.15700
C1243       C  0.30890507  0.20851669  0.99837043    -0.01300
C1244       C  0.33111085  0.18636556  0.99909055    -0.08900
C1245       C  0.34478167  0.17187280  0.91587884     0.65400
H1246       H  0.30031089  0.21225342  0.92314450     0.10800
C1247       C  0.29592579  0.22017141  0.02733903     0.63800
H1248       H  0.33881056  0.17758076  0.02021027     0.08200
F1249       F  0.37060407  0.04734965  0.95165489    -0.19300
F1250       F  0.32610111  0.06570101  0.96393926    -0.15500
F1251       F  0.35565737  0.04801015  0.99982871    -0.19000
F1252       F  0.39257947  0.19906379  0.00952547    -0.22400
F1253       F  0.40485774  0.19911952  0.96095259    -0.23800
F1254       F  0.43707407  0.18222872  0.99501352    -0.17800
F1255       F  0.30892015  0.20677944  0.05193256    -0.20300
F1256       F  0.26570028  0.21456605  0.02843763    -0.21500
F1257       F  0.30070299  0.25057280  0.02932121    -0.18700
F1258       F  0.33369921  0.18711484  0.89141044    -0.18700
F1259       F  0.33677784  0.14219198  0.91324706    -0.22600
F1260       F  0.37542880  0.17408828  0.91520444    -0.24200
C1261       C  0.51186812  0.11778818  0.84799699    -0.11000
C1262       C  0.49992332  0.14562920  0.85610693     0.11600
C1263       C  0.49023933  0.14992924  0.88583748    -0.02800
C1264       C  0.49061268  0.12540770  0.90560085    -0.05500
C1265       C  0.50218276  0.09725172  0.89746345    -0.16300
C1266       C  0.51474206  0.09403830  0.86853004     0.02600
C1267       C  0.49748369  0.16939055  0.83265870     0.12600
C1268       C  0.48042958  0.18041794  0.89707302     0.63200
H1269       H  0.48175308  0.12823429  0.92783796     0.12600
C1270       C  0.53248638  0.06658372  0.85945647     0.55300
H1271       H  0.51922014  0.11480802  0.82522600     0.08400
C1272       C  0.52282002  0.18339164  0.81995634    -0.05400
C1273       C  0.51888955  0.20296184  0.79561899    -0.06200
C1274       C  0.49060343  0.21021797  0.78459027    -0.15700
C1275       C  0.46516951  0.19719051  0.79803477    -0.01300
C1276       C  0.46913820  0.17675516  0.82164345    -0.08900
C1277       C  0.55382117  0.17846564  0.83250426     0.65400
H1278       H  0.53794098  0.21346369  0.78527239     0.10800
C1279       C  0.43352136  0.20408074  0.78855103     0.63800
H1280       H  0.44981776  0.16597394  0.83130680     0.08200
F1281       F  0.55253671  0.05912222  0.88164004    -0.19300
F1282       F  0.54870665  0.07165454  0.83370725    -0.15500
F1283       F  0.51351926  0.04284930  0.85434234    -0.19000
F1284       F  0.45409183  0.18882330  0.88363662    -0.22400
F1285       F  0.50206073  0.20142684  0.89072788    -0.23800
F1286       F  0.47599816  0.18041580  0.92760317    -0.17800
F1287       F  0.41788629  0.17770613  0.78494895    -0.20300
F1288       F  0.43199214  0.21960674  0.76203707    -0.21500
F1289       F  0.41986428  0.22089332  0.81047603    -0.18700
F1290       F  0.57422709  0.19812175  0.82025953    -0.18700
F1291       F  0.56332953  0.14973538  0.82652118    -0.22600
F1292       F  0.55364479  0.18288951  0.86296467    -0.24200
C1293       C  0.48463835  0.87795727  0.84737658    -0.11000
C1294       C  0.49046373  0.84839895  0.85552957     0.11600
C1295       C  0.50110985  0.84197202  0.88440544    -0.02800
C1296       C  0.50455889  0.86568847  0.90479076    -0.05500
C1297       C  0.49736989  0.89550034  0.89727264    -0.16300
C1298       C  0.48716619  0.90169392  0.86771938     0.02600
C1299       C  0.48259257  0.82463940  0.83384290     0.12600
C1300       C  0.50836419  0.81009555  0.89354440     0.63200
H1301       H  0.51260503  0.86092393  0.92700772     0.12600
C1302       C  0.47747397  0.93265406  0.85747562     0.55300
H1303       H  0.47686992  0.88204048  0.82490974     0.08400
C1304       C  0.45262376  0.81578389  0.82979411    -0.05400
C1305       C  0.44601523  0.79529644  0.80715906    -0.06200
C1306       C  0.46811443  0.78381305  0.78827484    -0.15700
C1307       C  0.49816279  0.79160186  0.79303162    -0.01300
C1308       C  0.50498207  0.81227348  0.81575281    -0.08900
C1309       C  0.42741547  0.82925488  0.84797074     0.65400
H1310       H  0.42314950  0.78908888  0.80282240     0.10800
C1311       C  0.52261690  0.77784454  0.77440062     0.63800
H1312       H  0.52773428  0.81937698  0.81923836     0.08200
F1313       F  0.46502560  0.93224999  0.82928050    -0.19300
F1314       F  0.50176002  0.95159963  0.85654497    -0.15500
F1315       F  0.45613104  0.94379382  0.87665781    -0.19000
F1316       F  0.53116132  0.79920362  0.87594381    -0.22400
F1317       F  0.48360994  0.79210862  0.89002934    -0.23800
F1318       F  0.51728776  0.80830962  0.92297967    -0.17800
F1319       F  0.51775787  0.78367160  0.74459241    -0.20300
F1320       F  0.52292315  0.74729796  0.77892920    -0.21500
F1321       F  0.55032157  0.78900818  0.78191526    -0.18700
F1322       F  0.40086095  0.81430548  0.84337341    -0.18700
F1323       F  0.42336802  0.85879410  0.83986437    -0.22600
F1324       F  0.43386445  0.82780327  0.87802693    -0.24200
C1325       C  0.48435757  0.87684836  0.14885979    -0.11000
C1326       C  0.49569068  0.84861315  0.14159972     0.11600
C1327       C  0.50369424  0.84258612  0.11179035    -0.02800
C1328       C  0.50379848  0.86632057  0.09101710    -0.05500
C1329       C  0.49406688  0.89545009  0.09843397    -0.16300
C1330       C  0.48209975  0.90005877  0.12759848     0.02600
C1331       C  0.49739752  0.82540212  0.16549065     0.12600
C1332       C  0.51097958  0.81093926  0.10187278     0.63200
H1333       H  0.51115164  0.86196104  0.06852558     0.12600
C1334       C  0.46490201  0.92809610  0.13609781     0.55300
H1335       H  0.47680725  0.88037544  0.17149343     0.08400
C1336       C  0.52271111  0.82230695  0.18402016    -0.05400
C1337       C  0.52285048  0.79970285  0.20587387    -0.06200
C1338       C  0.49818444  0.78106227  0.21077695    -0.15700
C1339       C  0.47195841  0.78593744  0.19385084    -0.01300
C1340       C  0.47240833  0.80739115  0.17084342    -0.08900
C1341       C  0.54946990  0.84276587  0.18076798     0.65400
H1342       H  0.54249122  0.79613781  0.21929255     0.10800
C1343       C  0.44261388  0.77053297  0.19992550     0.63800
H1344       H  0.45265095  0.81078459  0.15740669     0.08200
F1345       F  0.48374608  0.95232569  0.13798709    -0.19300
F1346       F  0.45091759  0.92507967  0.16343516    -0.15500
F1347       F  0.44308923  0.93366376  0.11510072    -0.19000
F1348       F  0.48699204  0.79247478  0.10763001    -0.22400
F1349       F  0.53549813  0.80024606  0.11706585    -0.23800
F1350       F  0.51697094  0.80950189  0.07168762    -0.17800
F1351       F  0.42042572  0.79181851  0.20271023    -0.20300
F1352       F  0.44289859  0.75409891  0.22587781    -0.21500
F1353       F  0.43574804  0.75190119  0.17637088    -0.18700
F1354       F  0.57073406  0.83721889  0.20239188    -0.18700
F1355       F  0.54069701  0.87226535  0.18343630    -0.22600
F1356       F  0.56251478  0.83864494  0.15323030    -0.24200
C1357       C  0.48894162  0.14893577  0.11363926    -0.11000
C1358       C  0.50131787  0.14173589  0.14132558     0.11600
C1359       C  0.50879996  0.11167839  0.14761343    -0.02800
C1360       C  0.50661515  0.09030735  0.12465138    -0.05500
C1361       C  0.49581409  0.09765692  0.09606492    -0.16300
C1362       C  0.48539093  0.12741653  0.09099206     0.02600
C1363       C  0.50597970  0.16632388  0.16323921     0.12600
C1364       C  0.51850533  0.10219246  0.17861010     0.63200
H1365       H  0.51364181  0.06756751  0.12895948     0.12600
C1366       C  0.46986417  0.13678900  0.06238779     0.55300
H1367       H  0.48238168  0.17192488  0.10980419     0.08400
C1368       C  0.53162975  0.18470966  0.16246263    -0.05400
C1369       C  0.53464519  0.20751181  0.18388085    -0.06200
C1370       C  0.51302790  0.21237502  0.20594647    -0.15700
C1371       C  0.48626955  0.19560521  0.20503848    -0.01300
C1372       C  0.48352463  0.17239065  0.18407048    -0.08900
C1373       C  0.55590685  0.17992070  0.13940607     0.65400
H1374       H  0.55463432  0.22095208  0.18451891     0.10800
C1375       C  0.45954746  0.20200117  0.22455589     0.63800
H1376       H  0.46335548  0.15912147  0.18360504     0.08200
F1377       F  0.49023304  0.13853537  0.03944688    -0.19300
F1378       F  0.45644309  0.16454072  0.06505734    -0.15500
F1379       F  0.44787925  0.11640404  0.05527426    -0.19000
F1380       F  0.49602706  0.10833282  0.19873284    -0.22400
F1381       F  0.54383006  0.11752938  0.18692897    -0.23800
F1382       F  0.52459766  0.07188358  0.18009210    -0.17800
F1383       F  0.43458641  0.20534502  0.20684566    -0.20300
F1384       F  0.46265489  0.22791294  0.24092531    -0.21500
F1385       F  0.45500799  0.17819538  0.24369193    -0.18700
F1386       F  0.57899896  0.20009413  0.14273500    -0.18700
F1387       F  0.54432709  0.18347464  0.11112199    -0.22600
F1388       F  0.56749856  0.15141834  0.14207768    -0.24200
C1389       C  0.34428866  0.96351277  0.18947321    -0.11000
C1390       C  0.34458259  0.99076945  0.17410023     0.11600
C1391       C  0.32458899  0.01384444  0.18188624    -0.02800
C1392       C  0.30379373  0.00824095  0.20446323    -0.05500
C1393       C  0.30197806  0.98017845  0.21833138    -0.16300
C1394       C  0.32296845  0.95767145  0.21153522     0.02600
C1395       C  0.36407328  0.99335544  0.14794715     0.12600
C1396       C  0.32377285  0.04328085  0.16490514     0.63200
H1397       H  0.28702723  0.02484576  0.20969977     0.12600
C1398       C  0.32177202  0.92720387  0.22630246     0.55300
H1399       H  0.35991175  0.94629994  0.18285074     0.08400
C1400       C  0.39369558  0.00304378  0.15049140    -0.05400
C1401       C  0.41041226  0.00607382  0.12442698    -0.06200
C1402       C  0.39947207  0.99696428  0.09637122    -0.15700
C1403       C  0.36998670  0.98572293  0.09423488    -0.01300
C1404       C  0.35256688  0.98480949  0.12023073    -0.08900
C1405       C  0.40800898  0.00858010  0.18068099     0.65400
H1406       H  0.43287058  0.01459064  0.12614929     0.10800
C1407       C  0.35715424  0.97357667  0.06537654     0.63800
H1408       H  0.32984016  0.97682145  0.11936271     0.08200
F1409       F  0.32498952  0.93041517  0.25669576    -0.19300
F1410       F  0.34426417  0.90857119  0.21630173    -0.15500
F1411       F  0.29481761  0.91361944  0.22029881    -0.19000
F1412       F  0.31598372  0.03810351  0.13559343    -0.22400
F1413       F  0.35133343  0.05687987  0.16556645    -0.23800
F1414       F  0.30330794  0.06300854  0.17693614    -0.17800
F1415       F  0.32927132  0.96111153  0.06950926    -0.20300
F1416       F  0.37555995  0.95147335  0.05418201    -0.21500
F1417       F  0.35435160  0.99639449  0.04477353    -0.18700
F1418       F  0.43735358  0.01757439  0.17801453    -0.18700
F1419       F  0.40754116  0.98248895  0.19719127    -0.22600
F1420       F  0.39274895  0.03048092  0.19604911    -0.24200
C1421       C  0.67510657  0.97735724  0.81415954    -0.11000
C1422       C  0.65904655  0.00284056  0.82253076     0.11600
C1423       C  0.66358812  0.03007044  0.80707969    -0.02800
C1424       C  0.68505867  0.03100567  0.78425905    -0.05500
C1425       C  0.70153446  0.00562597  0.77612726    -0.16300
C1426       C  0.69612081  0.97814289  0.79093362     0.02600
C1427       C  0.63829641  0.00031794  0.84820581     0.12600
C1428       C  0.64673304  0.05828778  0.81540069     0.63200
H1429       H  0.69052338  0.05213582  0.77384994     0.12600
C1430       C  0.71243609  0.94973435  0.78233081     0.55300
H1431       H  0.67123117  0.95682633  0.82635056     0.08400
C1432       C  0.60970339  0.98767740  0.84518108    -0.05400
C1433       C  0.59126193  0.98607775  0.87035959    -0.06200
C1434       C  0.60038184  0.99638745  0.89858727    -0.15700
C1435       C  0.62983107  0.00778796  0.90182846    -0.01300
C1436       C  0.64815868  0.00957970  0.87634352    -0.08900
C1437       C  0.59874949  0.97571132  0.81549201     0.65400
H1438       H  0.56929969  0.97647281  0.86803156     0.10800
C1439       C  0.64210321  0.01843344  0.93154315     0.63800
H1440       H  0.67054835  0.01832043  0.87806318     0.08200
F1441       F  0.70486462  0.94217884  0.75350836    -0.19300
F1442       F  0.70497333  0.92600120  0.80070782    -0.15500
F1443       F  0.74285977  0.95380805  0.78415015    -0.19000
F1444       F  0.65469201  0.06720789  0.84374439    -0.22400
F1445       F  0.61644427  0.05306034  0.81465005    -0.23800
F1446       F  0.65282445  0.08154683  0.79596562    -0.17800
F1447       F  0.67070739  0.02959780  0.92889122    -0.20300
F1448       F  0.64314778  0.99483784  0.95145399    -0.21500
F1449       F  0.62433419  0.04100060  0.94283792    -0.18700
F1450       F  0.56933241  0.96665728  0.81688256    -0.18700
F1451       F  0.61574109  0.95134934  0.80717682    -0.22600
F1452       F  0.60095087  0.99756432  0.79383414    -0.24200
C1453       C  0.35987936  0.97730305  0.86537768    -0.11000
C1454       C  0.36818105  0.99313981  0.83979822     0.11600
C1455       C  0.39401957  0.01113857  0.84034940    -0.02800
C1456       C  0.41126171  0.01174324  0.86656443    -0.05500
C1457       C  0.40359470  0.99494997  0.89204679    -0.16300
C1458       C  0.37743274  0.97716848  0.89129898     0.02600
C1459       C  0.34815998  0.99090054  0.81353175     0.12600
C1460       C  0.40347200  0.02935395  0.81339513     0.63200
H1461       H  0.43117047  0.02533098  0.86728120     0.12600
C1462       C  0.36853595  0.95689407  0.91685433     0.55300
H1463       H  0.33947624  0.96446357  0.86456564     0.08400
C1464       C  0.34658649  0.96461900  0.79593600    -0.05400
C1465       C  0.32299483  0.96157545  0.77552691    -0.06200
C1466       C  0.30085507  0.98350138  0.77287666    -0.15700
C1467       C  0.30364676  0.01062758  0.78888868    -0.01300
C1468       C  0.32711957  0.01365117  0.80927969    -0.08900
C1469       C  0.36874177  0.93922012  0.79981032     0.65400
H1470       H  0.32037691  0.94098517  0.76319716     0.10800
C1471       C  0.28172908  0.03636182  0.78650735     0.63800
H1472       H  0.32821850  0.03347951  0.82309587     0.08200
F1473       F  0.39219971  0.93865815  0.92448348    -0.19300
F1474       F  0.34485422  0.93865627  0.90927801    -0.15500
F1475       F  0.36008072  0.97386358  0.94112708    -0.19000
F1476       F  0.38183952  0.05023527  0.80658319    -0.22400
F1477       F  0.40757201  0.01073394  0.78920128    -0.23800
F1478       F  0.42985270  0.04450454  0.81839907    -0.17800
F1479       F  0.29713913  0.06286903  0.78279961    -0.20300
F1480       F  0.26531538  0.03799750  0.81249491    -0.21500
F1481       F  0.26239145  0.03356266  0.76275929    -0.18700
F1482       F  0.36459449  0.91696038  0.77882867    -0.18700
F1483       F  0.36557676  0.92648120  0.82767270    -0.22600
F1484       F  0.39741629  0.94991090  0.79679151    -0.24200
C1485       C  0.52168557  0.13960315  0.36986885    -0.11000
C1486       C  0.50701756  0.13214199  0.34341544     0.11600
C1487       C  0.49118180  0.10504414  0.34134293    -0.02800
C1488       C  0.48915190  0.08685823  0.36682891    -0.05500
C1489       C  0.50339010  0.09441324  0.39381856    -0.16300
C1490       C  0.52041497  0.12114674  0.39520918     0.02600
C1491       C  0.50851156  0.15373533  0.31847969     0.12600
C1492       C  0.47739489  0.09510697  0.31208025     0.63200
H1493       H  0.47671099  0.06618110  0.36565711     0.12600
C1494       C  0.53793784  0.13001319  0.42271472     0.55300
H1495       H  0.53407835  0.16034602  0.37044830     0.08400
C1496       C  0.48893013  0.17840879  0.31702091    -0.05400
C1497       C  0.49341405  0.19988023  0.29470731    -0.06200
C1498       C  0.51756191  0.19826846  0.27490490    -0.15700
C1499       C  0.53773262  0.17395901  0.27703046    -0.01300
C1500       C  0.53215081  0.15142465  0.29823643    -0.08900
C1501       C  0.46498719  0.18335195  0.34044773     0.65400
H1502       H  0.47944164  0.21960068  0.29415410     0.10800
C1503       C  0.56625879  0.17300817  0.25898535     0.63800
H1504       H  0.54730733  0.13273043  0.30055502     0.08200
F1505       F  0.55555715  0.15488216  0.41762500    -0.19300
F1506       F  0.55645970  0.10682816  0.43125211    -0.15500
F1507       F  0.51857037  0.13684216  0.44563348    -0.19000
F1508       F  0.49952882  0.09150591  0.29098318    -0.22400
F1509       F  0.45736830  0.11626725  0.30197725    -0.23800
F1510       F  0.46246152  0.06821060  0.31493706    -0.17800
F1511       F  0.58324797  0.14802425  0.26557379    -0.20300
F1512       F  0.58319396  0.19807682  0.26498566    -0.21500
F1513       F  0.55971160  0.17215818  0.22906163    -0.18700
F1514       F  0.44715107  0.20767933  0.33372222    -0.18700
F1515       F  0.47820234  0.18855544  0.36773922    -0.22600
F1516       F  0.44689218  0.15851354  0.34268658    -0.24200
C1517       C  0.51665886  0.88385192  0.34115064    -0.11000
C1518       C  0.50723246  0.85471359  0.34672596     0.11600
C1519       C  0.49874504  0.84610510  0.37577683    -0.02800
C1520       C  0.49705450  0.86819589  0.39795978    -0.05500
C1521       C  0.50568177  0.89792575  0.39236291    -0.16300
C1522       C  0.51699351  0.90556621  0.36359994     0.02600
C1523       C  0.50851364  0.83330863  0.32183184     0.12600
C1524       C  0.49283953  0.81356999  0.38344712     0.63200
H1525       H  0.48947667  0.86217472  0.42003911     0.12600
C1526       C  0.53142933  0.93552773  0.35665562     0.55300
H1527       H  0.52424662  0.88927329  0.31888865     0.08400
C1528       C  0.48432071  0.82935169  0.30206961    -0.05400
C1529       C  0.48641676  0.80689627  0.28035786    -0.06200
C1530       C  0.51239953  0.78987687  0.27724390    -0.15700
C1531       C  0.53799799  0.79706638  0.29402505    -0.01300
C1532       C  0.53533006  0.81812070  0.31688446    -0.08900
C1533       C  0.45639973  0.84835889  0.30423703     0.65400
H1534       H  0.46724569  0.80132701  0.26685713     0.10800
C1535       C  0.56827356  0.78298116  0.28860053     0.63800
H1536       H  0.55432600  0.82282587  0.33099449     0.08200
F1537       F  0.54611463  0.93532232  0.32955341    -0.19300
F1538       F  0.55221884  0.94206278  0.37831662    -0.15500
F1539       F  0.51024308  0.95784795  0.35541211    -0.19000
F1540       F  0.51800674  0.79678070  0.37752285    -0.22400
F1541       F  0.46948869  0.80272574  0.36666056    -0.23800
F1542       F  0.48582327  0.80985843  0.41323975    -0.17800
F1543       F  0.58977462  0.80507400  0.28789144    -0.20300
F1544       F  0.56973374  0.76785120  0.26179174    -0.21500
F1545       F  0.57477028  0.76329277  0.31142812    -0.18700
F1546       F  0.43691506  0.84255006  0.28109302    -0.18700
F1547       F  0.46382510  0.87830846  0.30294276    -0.22600
F1548       F  0.44189417  0.84272263  0.33077841    -0.24200
C1549       C  0.52366201  0.17198612  0.67564697    -0.11000
C1550       C  0.49902369  0.15309643  0.67276260     0.11600
C1551       C  0.47646384  0.15337936  0.69482963    -0.02800
C1552       C  0.47692689  0.17620343  0.71635171    -0.05500
C1553       C  0.49985239  0.19737451  0.71688457    -0.16300
C1554       C  0.52479209  0.19379006  0.69798166     0.02600
C1555       C  0.49853767  0.13237757  0.64708314     0.12600
C1556       C  0.45184674  0.13018433  0.69527512     0.63200
H1557       H  0.45842796  0.17881904  0.73151705     0.12600
C1558       C  0.55214636  0.21346394  0.70072591     0.55300
H1559       H  0.54164463  0.17017766  0.65965934     0.08400
C1560       C  0.48802537  0.14098802  0.61864723    -0.05400
C1561       C  0.48963165  0.12021690  0.59505687    -0.06200
C1562       C  0.50129538  0.09124500  0.59916989    -0.15700
C1563       C  0.51246766  0.08322199  0.62800707    -0.01300
C1564       C  0.51098038  0.10419327  0.65115850    -0.08900
C1565       C  0.47535748  0.17205468  0.61340673     0.65400
H1566       H  0.48139044  0.12641965  0.57326964     0.10800
C1567       C  0.52640658  0.05302032  0.63502938     0.63800
H1568       H  0.51941980  0.09874621  0.67309214     0.08200
F1569       F  0.54753721  0.24038666  0.68636323    -0.19300
F1570       F  0.57679776  0.19982767  0.68817910    -0.15500
F1571       F  0.55842355  0.21879235  0.73039609    -0.19000
F1572       F  0.46406894  0.10188092  0.69712687    -0.22400
F1573       F  0.43502081  0.13222785  0.66962498    -0.23800
F1574       F  0.43310825  0.13392559  0.71948109    -0.17800
F1575       F  0.53943414  0.05235159  0.66296595    -0.20300
F1576       F  0.54844678  0.04674568  0.61451773    -0.21500
F1577       F  0.50480227  0.03102734  0.63458667    -0.18700
F1578       F  0.46503014  0.17556243  0.58458313    -0.18700
F1579       F  0.49712724  0.19327821  0.61836660    -0.22600
F1580       F  0.45188155  0.17723295  0.63262252    -0.24200
C1581       C  0.51179188  0.85935761  0.63214907    -0.11000
C1582       C  0.48250880  0.85513404  0.64229793     0.11600
C1583       C  0.45884905  0.86986440  0.62731413    -0.02800
C1584       C  0.46562023  0.88973981  0.60397825    -0.05500
C1585       C  0.49485615  0.89410313  0.59403580    -0.16300
C1586       C  0.51833076  0.87766083  0.60742575     0.02600
C1587       C  0.47701988  0.83530883  0.66858328     0.12600
C1588       C  0.42648843  0.86435091  0.63546738     0.63200
H1589       H  0.44795127  0.90220152  0.59319736     0.12600
C1590       C  0.55029543  0.87784182  0.59647765     0.55300
H1591       H  0.52983440  0.84812362  0.64360299     0.08400
C1592       C  0.47978451  0.80378771  0.66709398    -0.05400
C1593       C  0.47144886  0.78664511  0.69202905    -0.06200
C1594       C  0.45940274  0.79961250  0.71788893    -0.15700
C1595       C  0.45719914  0.83122162  0.71957915    -0.01300
C1596       C  0.46707149  0.84847798  0.69516418    -0.08900
C1597       C  0.49025915  0.78806854  0.63899169     0.65400
H1598       H  0.47293015  0.76249398  0.69105131     0.10800
C1599       C  0.44431468  0.84701697  0.74649614     0.63800
H1600       H  0.46617172  0.87264337  0.69621852     0.08200
F1601       F  0.55802225  0.84927119  0.58763424    -0.19300
F1602       F  0.56894880  0.88629799  0.61944809    -0.15500
F1603       F  0.55491795  0.89680149  0.57262489    -0.19000
F1604       F  0.42025910  0.87651644  0.66302722    -0.22400
F1605       F  0.42088596  0.83396830  0.63615915    -0.23800
F1606       F  0.40725853  0.87711429  0.61498527    -0.17800
F1607       F  0.46440859  0.84557982  0.76959237    -0.20300
F1608       F  0.41776230  0.83394333  0.75496548    -0.21500
F1609       F  0.43876267  0.87692912  0.74076236    -0.18700
F1610       F  0.48807448  0.75728917  0.64143698    -0.18700
F1611       F  0.51970104  0.79492490  0.63348866    -0.22600
F1612       F  0.47311002  0.79695937  0.61500830    -0.24200
C1613       C  0.31059766  0.96373588  0.33390370    -0.11000
C1614       C  0.32949919  0.98851157  0.33251918     0.11600
C1615       C  0.32816892  0.00787337  0.30765358    -0.02800
C1616       C  0.30659313  0.00250619  0.28555904    -0.05500
C1617       C  0.28823383  0.97705353  0.28628986    -0.16300
C1618       C  0.29114758  0.95669903  0.31046853     0.02600
C1619       C  0.35331898  0.99083216  0.35524070     0.12600
C1620       C  0.34994086  0.03358044  0.30429157     0.63200
H1621       H  0.30416814  0.01798397  0.26722846     0.12600
C1622       C  0.27626237  0.92635532  0.31161148     0.55300
H1623       H  0.31262757  0.94856954  0.35265236     0.08400
C1624       C  0.35093135  0.00818073  0.38152424    -0.05400
C1625       C  0.37524997  0.00891694  0.40118368    -0.06200
C1626       C  0.40138085  0.99241064  0.39592170    -0.15700
C1627       C  0.40289322  0.97364787  0.37049255    -0.01300
C1628       C  0.37889749  0.97354439  0.35044336    -0.08900
C1629       C  0.32340860  0.02567122  0.39054366     0.65400
H1630       H  0.37368564  0.02252498  0.42110415     0.10800
C1631       C  0.42924190  0.95328263  0.36464430     0.63800
H1632       H  0.37988041  0.95987943  0.33056105     0.08200
F1633       F  0.25231219  0.92744750  0.33089949    -0.19300
F1634       F  0.29619283  0.90509320  0.32187975    -0.15500
F1635       F  0.26688644  0.91700605  0.28394197    -0.19000
F1636       F  0.37880188  0.02280899  0.30469167    -0.22400
F1637       F  0.34625221  0.05353574  0.32747151    -0.23800
F1638       F  0.34586740  0.04881709  0.27775867    -0.17800
F1639       F  0.42374712  0.93342689  0.34166244    -0.20300
F1640       F  0.43573291  0.93670143  0.38984397    -0.21500
F1641       F  0.45350719  0.97042283  0.35680897    -0.18700
F1642       F  0.33087866  0.05540109  0.39441831    -0.18700
F1643       F  0.31286560  0.01453603  0.41729325    -0.22600
F1644       F  0.30067664  0.02415042  0.36992112    -0.24200
C1645       C  0.62278967  0.98602468  0.64195815    -0.11000
C1646       C  0.64816910  0.00275501  0.63514048     0.11600
C1647       C  0.65091332  0.01639944  0.60684815    -0.02800
C1648       C  0.62686207  0.01438455  0.58694395    -0.05500
C1649       C  0.60084113  0.99838326  0.59404986    -0.16300
C1650       C  0.59902696  0.98334757  0.62188719     0.02600
C1651       C  0.67100044  0.00547135  0.65875638     0.12600
C1652       C  0.67937222  0.03194433  0.59722120     0.63200
H1653       H  0.62835916  0.02517136  0.56539799     0.12600
C1654       C  0.57278970  0.96379974  0.63035640     0.55300
H1655       H  0.62162479  0.97535987  0.66359882     0.08400
C1656       C  0.66818901  0.02672318  0.68189408    -0.05400
C1657       C  0.68910568  0.02632433  0.70518798    -0.06200
C1658       C  0.71174704  0.00465912  0.70676209    -0.15700
C1659       C  0.71319316  0.98224908  0.68443408    -0.01300
C1660       C  0.69337209  0.98372387  0.66025822    -0.08900
C1661       C  0.64305959  0.04953015  0.68200753     0.65400
H1662       H  0.68848078  0.04352021  0.72201832     0.10800
C1663       C  0.73401212  0.95567280  0.68549919     0.63800
H1664       H  0.69445718  0.96682833  0.64298988     0.08200
F1665       F  0.54820046  0.98137350  0.63624585    -0.19300
F1666       F  0.57862802  0.94672427  0.65542903    -0.15500
F1667       F  0.56640824  0.94450022  0.60732376    -0.35200
F1668       F  0.70200763  0.01110931  0.59513315    -0.22400
F1669       F  0.68734643  0.05356976  0.61761579    -0.23800
F1670       F  0.67629219  0.04569743  0.56972987    -0.17800
F1671       F  0.71781741  0.92969260  0.68151559    -0.20300
F1672       F  0.74875933  0.95324398  0.71233480    -0.21500
F1673       F  0.75459665  0.95799698  0.66271863    -0.18700
F1674       F  0.64521073  0.06900955  0.70582578    -0.18700
F1675       F  0.61597972  0.03504738  0.68401234    -0.22600
F1676       F  0.64363215  0.06622659  0.65610830    -0.24200
C1677       C  0.32553757  0.95744424  0.66911128    -0.11000
C1678       C  0.33700660  0.98623372  0.66494612     0.11600
C1679       C  0.32514166  0.01054549  0.68122407    -0.02800
C1680       C  0.30221398  0.00489259  0.70177926    -0.05500
C1681       C  0.29065816  0.97606747  0.70589888    -0.16300
C1682       C  0.30261355  0.95182843  0.68958690     0.02600
C1683       C  0.36012801  0.99017955  0.64182010     0.12600
C1684       C  0.33650688  0.04220148  0.67674461     0.63200
H1685       H  0.29285844  0.02294676  0.71475270     0.12600
C1686       C  0.29123602  0.92019718  0.69351150     0.55300
H1687       H  0.33451654  0.93938252  0.65578682     0.08400
C1688       C  0.39028634  0.98309924  0.64701876    -0.05400
C1689       C  0.41042212  0.98524187  0.62320758    -0.06200
C1690       C  0.40135957  0.99352532  0.59425834    -0.15700
C1691       C  0.37079937  0.00081077  0.58930409    -0.01300
C1692       C  0.35085194  0.99885991  0.61337824    -0.08900
C1693       C  0.40099257  0.97233002  0.67730798     0.65400
H1694       H  0.43346802  0.97939085  0.62703743     0.10800
C1695       C  0.35863322  0.01034440  0.55912063     0.63800
H1696       H  0.32740694  0.00344102  0.61012702     0.08200
F1697       F  0.31023324  0.89948861  0.68070559    -0.19300
F1698       F  0.26383681  0.91754423  0.67995988    -0.15500
F1699       F  0.28863130  0.91323298  0.72339081    -0.19000
F1700       F  0.33135174  0.05123823  0.64776895    -0.22400
F1701       F  0.36670481  0.04340146  0.68236017    -0.23800
F1702       F  0.32249669  0.06228145  0.69555049    -0.17800
F1703       F  0.32917890  0.01932524  0.56080197    -0.20300
F1704       F  0.36005110  0.98660968  0.53945926    -0.21500
F1705       F  0.37480074  0.03422560  0.54813294    -0.18700
F1706       F  0.43162744  0.96912974  0.67820036    -0.18700
F1707       F  0.38842485  0.94488681  0.68369411    -0.22600
F1708       F  0.39293949  0.99247852  0.69917673    -0.24200
C1709       C  0.61253203  0.98039975  0.14943698    -0.11000
C1710       C  0.63814215  0.99776784  0.14624195     0.11600
C1711       C  0.64271573  0.01446922  0.11983189    -0.02800
C1712       C  0.62048280  0.01412947  0.09778711    -0.05500
C1713       C  0.59450073  0.99699739  0.10105866    -0.16300
C1714       C  0.59054492  0.97949603  0.12726868     0.02600
C1715       C  0.66081517  0.99595061  0.17008246     0.12600
C1716       C  0.67135821  0.03167230  0.11453504     0.63200
H1717       H  0.62340761  0.02700425  0.07755891     0.12600
C1718       C  0.56391526  0.95906849  0.13168398     0.55300
H1719       H  0.61012971  0.96721387  0.16953638     0.08400
C1720       C  0.65909138  0.01309986  0.19650906    -0.05400
C1721       C  0.68267443  0.01129078  0.21711027    -0.06200
C1722       C  0.70701236  0.99216488  0.21231134    -0.15700
C1723       C  0.70677374  0.97262231  0.18735556    -0.01300
C1724       C  0.68390309  0.97537477  0.16640225    -0.08900
C1725       C  0.63285335  0.03364677  0.20242325     0.65400
H1726       H  0.68303510  0.02602638  0.23619747     0.10800
C1727       C  0.72985626  0.94847515  0.18148421     0.63800
H1728       H  0.68408668  0.96128702  0.14675471     0.08200
F1729       F  0.53854120  0.97604725  0.13560458    -0.19300
F1730       F  0.56705083  0.94098739  0.15653419    -0.15500
F1731       F  0.56061407  0.94065261  0.10718708    -0.19000
F1732       F  0.69485348  0.01184797  0.11217378    -0.22400
F1733       F  0.67668281  0.05099358  0.13791835    -0.23800
F1734       F  0.67019320  0.04837264  0.08857693    -0.17800
F1735       F  0.71555243  0.92149736  0.17691569    -0.20300
F1736       F  0.74955937  0.94443856  0.20470960    -0.21500
F1737       F  0.74576480  0.95567565  0.15610807    -0.18700
F1738       F  0.63572684  0.04858639  0.22924163    -0.18700
F1739       F  0.60689385  0.01714005  0.20351343    -0.22600
F1740       F  0.63057931  0.05467032  0.17996027    -0.24200
C1741       C  0.67401910  0.97059667  0.30689888    -0.11000
C1742       C  0.66764082  0.99579448  0.32431553     0.11600
C1743       C  0.68524255  0.02184435  0.32107261    -0.02800
C1744       C  0.70802324  0.02214050  0.29948888    -0.05500
C1745       C  0.71439995  0.99701325  0.28189245    -0.16300
C1746       C  0.69763005  0.97045584  0.28621575     0.02600
C1747       C  0.64414179  0.99359682  0.34766189     0.12600
C1748       C  0.68018534  0.04903861  0.34069762     0.63200
H1749       H  0.72124769  0.04205726  0.29613334     0.12600
C1750       C  0.70451525  0.94154106  0.27005751     0.55300
H1751       H  0.66081271  0.95059807  0.31013613     0.08400
C1752       C  0.61371235  0.99874498  0.34167541    -0.05400
C1753       C  0.59340868  0.99874866  0.36560006    -0.06200
C1754       C  0.60238645  0.99389950  0.39537914    -0.15700
C1755       C  0.63320030  0.98796546  0.40102096    -0.01300
C1756       C  0.65317569  0.98738642  0.37680872    -0.08900
C1757       C  0.60278196  0.00436287  0.31015330     0.65400
H1758       H  0.57016318  0.00300472  0.36101154     0.10800
C1759       C  0.64575428  0.98260170  0.43206909     0.63800
H1760       H  0.67660027  0.98304464  0.38046227     0.08200
F1761       F  0.68730825  0.93967269  0.24465468    -0.19300
F1762       F  0.69809105  0.91717174  0.28795254    -0.15500
F1763       F  0.73427028  0.93968085  0.26254154    -0.19000
F1764       F  0.68599018  0.04182483  0.37005861    -0.22400
F1765       F  0.65104860  0.05865804  0.33830825    -0.23800
F1766       F  0.69855917  0.07255237  0.33283632    -0.17800
F1767       F  0.67592500  0.97626425  0.43149075    -0.20300
F1768       F  0.63162639  0.95853342  0.44524246    -0.21500
F1769       F  0.64202341  0.00793926  0.44930357    -0.18700
F1770       F  0.57239735  0.00945836  0.30923622    -0.18700
F1771       F  0.60891182  0.97978107  0.29256912    -0.22600
F1772       F  0.61685230  0.02910120  0.29827431    -0.24200
C1773       C  0.37802042  0.84968215  0.48192787    -0.11000
C1774       C  0.35251003  0.85794589  0.49799839     0.11600
C1775       C  0.35212712  0.88498787  0.51418936    -0.02800
C1776       C  0.37745372  0.90321763  0.51330170    -0.05500
C1777       C  0.40267092  0.89565205  0.49632139    -0.16300
C1778       C  0.40303750  0.86845535  0.48009843     0.02600
C1779       C  0.32704017  0.83701230  0.49810591     0.12600
C1780       C  0.32501355  0.89484479  0.53190423     0.63200
H1781       H  0.37762486  0.92392973  0.52575917     0.12600
C1782       C  0.42871513  0.85993275  0.45971401     0.55300
H1783       H  0.37782990  0.82851600  0.47024354     0.08400
C1784       C  0.30773067  0.83413952  0.47334740    -0.05400
C1785       C  0.28681330  0.81073298  0.47330342    -0.06200
C1786       C  0.28513142  0.79043496  0.49701640    -0.15700
C1787       C  0.30320101  0.79447603  0.52250517    -0.01300
C1788       C  0.32411732  0.81770907  0.52249282    -0.08900
C1789       C  0.30999783  0.85501302  0.44672741     0.65400
H1790       H  0.27290670  0.80699160  0.45399883     0.10800
C1791       C  0.30146602  0.77346331  0.54905424     0.63800
H1792       H  0.33939480  0.82010231  0.54098914     0.08200
F1793       F  0.43384269  0.88273605  0.43951778    -0.19300
F1794       F  0.42274812  0.83418800  0.44372906    -0.15500
F1795       F  0.45416485  0.85481979  0.47623059    -0.19000
F1796       F  0.31895270  0.87434506  0.55410159    -0.22400
F1797       F  0.30062293  0.89709268  0.51333316    -0.23800
F1798       F  0.32927485  0.92241886  0.54521297    -0.17800
F1799       F  0.31593640  0.78512672  0.57362584    -0.20300
F1800       F  0.31453947  0.74639794  0.54205362    -0.21500
F1801       F  0.27212882  0.76867802  0.55689810    -0.18700
F1802       F  0.28777493  0.84963383  0.42610855    -0.18700
F1803       F  0.33710119  0.85123422  0.43267874    -0.22600
F1804       F  0.30747485  0.88436140  0.45593655    -0.24200
C1805       C  0.65446827  0.88511819  0.52184367    -0.11000
C1806       C  0.65321853  0.85736182  0.50781366     0.11600
C1807       C  0.62762541  0.84938972  0.49121129    -0.02800
C1808       C  0.60450430  0.87056776  0.48804859    -0.05500
C1809       C  0.60587406  0.89874544  0.50186411    -0.16300
C1810       C  0.63108837  0.90578728  0.51983703     0.02600
C1811       C  0.67733375  0.83590291  0.51499547     0.12600
C1812       C  0.62450829  0.81848499  0.47756970     0.63200
H1813       H  0.58506347  0.86518899  0.47488328     0.12600
C1814       C  0.63292866  0.93400810  0.53857633     0.55300
H1815       H  0.67386381  0.89008466  0.53526580     0.08400
C1816       C  0.70421637  0.83431170  0.49867554    -0.05400
C1817       C  0.72534019  0.81247767  0.50671381    -0.06200
C1818       C  0.72169795  0.79460799  0.53223552    -0.15700
C1819       C  0.69690627  0.80005347  0.55114416    -0.01300
C1820       C  0.67447364  0.81948714  0.54136396    -0.08900
C1821       C  0.71079140  0.85590281  0.47343823     0.65400
H1822       H  0.74409452  0.80853123  0.49226783     0.10800
C1823       C  0.69319966  0.78685882  0.58209140     0.63800
H1824       H  0.65479058  0.82265424  0.55500535     0.08200
F1825       F  0.63771870  0.95857685  0.52051076    -0.19300
F1826       F  0.65597733  0.93277282  0.55900066    -0.15500
F1827       F  0.60682918  0.93756677  0.55444959    -0.19000
F1828       F  0.62669057  0.79691740  0.49953039    -0.22400
F1829       F  0.64670318  0.81380177  0.45681073    -0.23800
F1830       F  0.59735867  0.81492941  0.46346584    -0.17800
F1831       F  0.68848404  0.80983296  0.60217551    -0.20300
F1832       F  0.71785793  0.77107607  0.59163108    -0.21500
F1833       F  0.66872882  0.76815413  0.58251592    -0.18700
F1834       F  0.73841719  0.85061156  0.46081271    -0.18700
F1835       F  0.71063246  0.88483219  0.48423057    -0.22600
F1836       F  0.68954369  0.85339674  0.45140850    -0.24200
C1837       C  0.62318522  0.14169805  0.51636176    -0.11000
C1838       C  0.65154440  0.13157767  0.50821132     0.11600
C1839       C  0.65574600  0.10170646  0.49930545    -0.02800
C1840       C  0.63057476  0.08364553  0.49578302    -0.05500
C1841       C  0.60168420  0.09371817  0.50310135    -0.16300
C1842       C  0.59809855  0.12302220  0.51491181     0.02600
C1843       C  0.67663158  0.15246150  0.51163013     0.12600
C1844       C  0.68664897  0.08876073  0.49426796     0.63200
H1845       H  0.63357501  0.06113453  0.48753218     0.12600
C1846       C  0.56873758  0.13433799  0.52746137     0.55300
H1847       H  0.62104966  0.16442512  0.52439236     0.08400
C1848       C  0.68412809  0.17329272  0.48915527    -0.05400
C1849       C  0.70609556  0.19460580  0.49538232    -0.06200
C1850       C  0.71975250  0.19614080  0.52340178    -0.15700
C1851       C  0.71254149  0.17507028  0.54569376    -0.01300
C1852       C  0.69099191  0.15333175  0.53931043    -0.08900
C1853       C  0.66805468  0.17395639  0.45936787     0.65400
H1854       H  0.71161269  0.21149871  0.47898281     0.10800
C1855       C  0.72698228  0.17598725  0.57616443     0.63800
H1856       H  0.68440088  0.13734486  0.55619898     0.08200
F1857       F  0.54836927  0.13834376  0.50475606    -0.19300
F1858       F  0.57198828  0.16144853  0.54194446    -0.15500
F1859       F  0.55776128  0.11407493  0.54799087    -0.19000
F1860       F  0.70374403  0.09236439  0.51958448    -0.22400
F1861       F  0.70037929  0.10312435  0.47077908    -0.23800
F1862       F  0.68566888  0.05850037  0.48791648    -0.17800
F1863       F  0.71538633  0.15447526  0.59507239    -0.20300
F1864       F  0.72254578  0.20364278  0.58915194    -0.21500
F1865       F  0.75712208  0.17076189  0.57325038    -0.18700
F1866       F  0.67815508  0.19692622  0.44132802    -0.18700
F1867       F  0.63789287  0.17810221  0.46377002    -0.22600
F1868       F  0.67247721  0.14735947  0.44444182    -0.24200
C1869       C  0.31468691  0.16155262  0.45082518    -0.11000
C1870       C  0.32545224  0.15536572  0.47950464     0.11600
C1871       C  0.31388170  0.17125632  0.50422710    -0.02800
C1872       C  0.29252056  0.19367714  0.49912699    -0.05500
C1873       C  0.28218932  0.20020181  0.47040758    -0.16300
C1874       C  0.29268114  0.18340176  0.44590577     0.02600
C1875       C  0.35011543  0.13339293  0.48268501     0.12600
C1876       C  0.32450731  0.16506951  0.53574277     0.63200
H1877       H  0.28464209  0.20732244  0.51741963     0.12600
C1878       C  0.28056464  0.18850666  0.41480501     0.55300
H1879       H  0.32397710  0.14929383  0.43223194     0.08400
C1880       C  0.34526683  0.10225365  0.48189150    -0.05400
C1881       C  0.36977663  0.08297471  0.48545393    -0.06200
C1882       C  0.39915462  0.09365450  0.48919924    -0.15700
C1883       C  0.40385312  0.12528743  0.48923728    -0.01300
C1884       C  0.37910362  0.14436950  0.48575019    -0.08900
C1885       C  0.31431830  0.08947733  0.47701182     0.65400
H1886       H  0.36592308  0.05912711  0.48491705     0.10800
C1887       C  0.43442329  0.13947463  0.49290923     0.63800
H1888       H  0.38206487  0.16838626  0.48543739     0.08200
F1889       F  0.25084387  0.18072240  0.41432214    -0.19300
F1890       F  0.29525356  0.17133076  0.39380301    -0.15500
F1891       F  0.28351603  0.21818666  0.40670681    -0.19000
F1892       F  0.35449480  0.17135028  0.53818338    -0.22400
F1893       F  0.31979099  0.13537383  0.54278163    -0.23800
F1894       F  0.30952373  0.18236154  0.55645790    -0.17800
F1895       F  0.43307873  0.17039064  0.49303657    -0.20300
F1896       F  0.45270696  0.13119237  0.46952776    -0.21500
F1897       F  0.44685495  0.13064435  0.51969486    -0.18700
F1898       F  0.31420408  0.05856387  0.47821628    -0.18700
F1899       F  0.30382842  0.09790896  0.44932771    -0.22600
F1900       F  0.29509174  0.09998058  0.49864381    -0.24200
C1901       C  0.87997688  0.01702577  0.64157630    -0.11000
C1902       C  0.85272772  0.00410701  0.63376292     0.11600
C1903       C  0.84980357  0.98951717  0.60607928    -0.02800
C1904       C  0.87495545  0.98719871  0.58752142    -0.05500
C1905       C  0.90274471  0.99956091  0.59541158    -0.16300
C1906       C  0.90518022  0.01508898  0.62299142     0.02600
C1907       C  0.82796637  0.00543420  0.65568777     0.12600
C1908       C  0.82004948  0.97700935  0.59603520     0.63200
H1909       H  0.87290014  0.97586317  0.56634137     0.12600
C1910       C  0.93356789  0.03071994  0.63255369     0.55300
H1911       H  0.88129020  0.02852408  0.66274221     0.08400
C1912       C  0.82661850  0.98536746  0.67998690    -0.05400
C1913       C  0.80344971  0.98850114  0.70067969    -0.06200
C1914       C  0.78182470  0.01107732  0.69820531    -0.15700
C1915       C  0.78332125  0.03140767  0.67398293    -0.01300
C1916       C  0.80640694  0.02800350  0.65290744    -0.08900
C1917       C  0.85002265  0.96122172  0.68453143     0.65400
H1918       H  0.80272720  0.97396895  0.71997391     0.10800
C1919       C  0.76136992  0.05695587  0.67061551     0.63800
H1920       H  0.80819453  0.04329841  0.63428843     0.08200
F1921       F  0.95597874  0.01000740  0.63705287    -0.19300
F1922       F  0.92985624  0.04630090  0.65891355    -0.15500
F1923       F  0.94199820  0.05093278  0.61083648    -0.19000
F1924       F  0.79995883  0.00014988  0.59238858    -0.22400
F1925       F  0.80910370  0.95728384  0.61705621    -0.23800
F1926       F  0.82235362  0.96192669  0.56924054    -0.17800
F1927       F  0.76969355  0.07649792  0.64819459    -0.20300
F1928       F  0.75937946  0.07301366  0.69683099    -0.21500
F1929       F  0.73379655  0.04573060  0.66337066    -0.18700
F1930       F  0.84394244  0.94363895  0.70917629    -0.18700
F1931       F  0.87761147  0.97413621  0.68876102    -0.22600
F1932       F  0.85115095  0.94280579  0.65987728    -0.24200
C1933       C  0.18043922  0.94947367  0.66641024    -0.11000
C1934       C  0.18118657  0.97618023  0.65020256     0.11600
C1935       C  0.20341889  0.99768022  0.65637698    -0.02800
C1936       C  0.22399536  0.99174718  0.67928133    -0.05500
C1937       C  0.22248602  0.96547920  0.69639286    -0.16300
C1938       C  0.20094425  0.94343242  0.68914449     0.02600
C1939       C  0.15649998  0.98188906  0.62905388     0.12600
C1940       C  0.20432179  0.02742981  0.64007897     0.63200
H1941       H  0.23992546  0.00872601  0.68553849     0.12600
C1942       C  0.19806055  0.91339675  0.70467437     0.55300
H1943       H  0.16311122  0.93331845  0.66161812     0.08400
C1944       C  0.15575301  0.96903121  0.60033541    -0.05400
C1945       C  0.13066436  0.97417394  0.58243926    -0.06200
C1946       C  0.10633387  0.99144398  0.59229591    -0.15700
C1947       C  0.10699449  0.00396978  0.62131722    -0.01300
C1948       C  0.13215582  0.99867466  0.63925760    -0.08900
C1949       C  0.18123862  0.94996856  0.58859869     0.65400
H1950       H  0.12973627  0.96430857  0.56044778     0.10800
C1951       C  0.08204095  0.02361670  0.63311945     0.63800
H1952       H  0.13308439  0.00754132  0.66166633     0.08200
F1953       F  0.22116397  0.90735625  0.72403716    -0.19300
F1954       F  0.19765872  0.89090931  0.68353433    -0.15500
F1955       F  0.17158485  0.91266383  0.72035897    -0.19000
F1956       F  0.17909689  0.04381090  0.64673469    -0.22400
F1957       F  0.20555245  0.02278685  0.60969658    -0.23800
F1958       F  0.22889245  0.04422018  0.64811853    -0.17800
F1959       F  0.08867435  0.03521580  0.66090151    -0.20300
F1960       F  0.05613838  0.00723300  0.63590303    -0.21500
F1961       F  0.07738121  0.04731951  0.61386800    -0.18700
F1962       F  0.17585413  0.93979281  0.55998555    -0.18700
F1963       F  0.18532853  0.92529122  0.60666262    -0.22600
F1964       F  0.20716540  0.96651733  0.58805858    -0.24200
C1965       C  0.15321284  0.97614653  0.38163604    -0.11000
C1966       C  0.15037253  0.99085722  0.35443364     0.11600
C1967       C  0.12407232  0.00695913  0.34783091    -0.02800
C1968       C  0.10169451  0.00884523  0.36978578    -0.05500
C1969       C  0.10449993  0.99408270  0.39732783    -0.16300
C1970       C  0.13068844  0.97697786  0.40315226     0.02600
C1971       C  0.17407005  0.98536565  0.33229543     0.12600
C1972       C  0.11910029  0.02066959  0.31729532     0.63200
H1973       H  0.08156975  0.02141631  0.36536376     0.12600
C1974       C  0.13484488  0.95842750  0.43121424     0.55300
H1975       H  0.17331536  0.96334241  0.38556296     0.08400
C1976       C  0.20057370  0.00239715  0.33116220    -0.05400
C1977       C  0.22203010  0.99512158  0.30952634    -0.06200
C1978       C  0.21851473  0.97026401  0.29079712    -0.15700
C1979       C  0.19369356  0.95105136  0.29490078    -0.01300
C1980       C  0.17140814  0.95963673  0.31488563    -0.08900
C1981       C  0.20613945  0.02798489  0.35262167     0.65400
H1982       H  0.24102579  0.00959763  0.30629298     0.10800
C1983       C  0.18949558  0.92113285  0.27941178     0.63800
H1984       H  0.15189282  0.94562340  0.31752986     0.08200
F1985       F  0.13996967  0.97702159  0.45524444    -0.19300
F1986       F  0.15883787  0.93911635  0.42894102    -0.15500
F1987       F  0.10980904  0.94120968  0.43623716    -0.19000
F1988       F  0.11704109  0.99818337  0.29631494    -0.22400
F1989       F  0.14247239  0.03923867  0.30981089    -0.23800
F1990       F  0.09317576  0.03736646  0.31627995    -0.17800
F1991       F  0.18487174  0.89919844  0.30066550    -0.20300
F1992       F  0.21362787  0.91241712  0.26250962    -0.21500
F1993       F  0.16478273  0.92259212  0.26115373    -0.18700
F1994       F  0.23395420  0.04059056  0.34842773    -0.18700
F1995       F  0.20468991  0.01767034  0.38160741    -0.22600
F1996       F  0.18499675  0.05005172  0.34869947    -0.24200
C1997       C  0.82429114  0.03490737  0.31780172    -0.11000
C1998       C  0.82744181  0.00981269  0.33614972     0.11600
C1999       C  0.80533606  0.98723505  0.33555954    -0.02800
C2000       C  0.78338080  0.98822078  0.31310044    -0.05500
C2001       C  0.78183663  0.01224378  0.29304604    -0.16300
C2002       C  0.80092993  0.03713030  0.29721086     0.02600
C2003       C  0.85330396  0.00864833  0.35679859     0.12600
C2004       C  0.80474356  0.96273967  0.35891604     0.63200
H2005       H  0.76817753  0.96968654  0.31025767     0.12600
C2006       C  0.79757553  0.06633864  0.28032741     0.55300
H2007       H  0.84013709  0.05306026  0.31975268     0.08400
C2008       C  0.88082408  0.99543362  0.34878234    -0.05400
C2009       C  0.90372520  0.99390974  0.37022692    -0.06200
C2010       C  0.90037570  0.00628351  0.39883597    -0.15700
C2011       C  0.87358706  0.02211452  0.40556873    -0.01300
C2012       C  0.85036793  0.02234023  0.38456649    -0.08900
C2013       C  0.88618123  0.98382979  0.31746476     0.65400
H2014       H  0.92450059  0.98300997  0.36471834     0.10800
C2015       C  0.86947631  0.03984866  0.43413108     0.63800
H2016       H  0.82947375  0.03330127  0.38965909     0.08200
F2017       F  0.82088601  0.06947733  0.26047497    -0.19300
F2018       F  0.79824923  0.08990183  0.30024413    -0.15500
F2019       F  0.77097356  0.06812629  0.26494450    -0.19000
F2020       F  0.80017186  0.97544564  0.38660190    -0.22400
F2021       F  0.83140352  0.94732678  0.35917933    -0.23800
F2022       F  0.78208718  0.94246116  0.35378793    -0.17800
F2023       F  0.84511468  0.05878067  0.43256005    -0.20300
F2024       F  0.89427403  0.05736835  0.43927668    -0.21500
F2025       F  0.86503537  0.02060277  0.45780530    -0.18700
F2026       F  0.91433257  0.97161050  0.31434812    -0.18700
F2027       F  0.88353075  0.00712477  0.29737443    -0.22600
F2028       F  0.86559686  0.96202714  0.31046991    -0.24200
C2029       C  0.12319467  0.84596655  0.50766268    -0.11000
C2030       C  0.15252494  0.85460022  0.50176307     0.11600
C2031       C  0.15854496  0.88492884  0.49511218    -0.02800
C2032       C  0.13476750  0.90566024  0.49495360    -0.05500
C2033       C  0.10491280  0.89714884  0.50010005    -0.16300
C2034       C  0.09923233  0.86644272  0.50720310     0.02600
C2035       C  0.17588533  0.83069404  0.50098495     0.12600
C2036       C  0.18986877  0.89524172  0.48751130     0.63200
H2037       H  0.13948568  0.92883624  0.49016059     0.12600
C2038       C  0.06841859  0.85475424  0.51493769     0.55300
H2039       H  0.11922793  0.82255371  0.51232327     0.08400
C2040       C  0.18958478  0.81931076  0.52709793    -0.05400
C2041       C  0.21000563  0.79536839  0.52451234    -0.06200
C2042       C  0.21668740  0.78221807  0.49691462    -0.15700
C2043       C  0.20302911  0.79377488  0.47082258    -0.01300
C2044       C  0.18267506  0.81759105  0.47344578    -0.08900
C2045       C  0.18216831  0.83198273  0.55758265     0.65400
H2046       H  0.22075131  0.78649691  0.54411739     0.10800
C2047       C  0.20899717  0.78223483  0.43961224     0.63800
H2048       H  0.17179602  0.82608480  0.45361351     0.08200
F2049       F  0.05668213  0.87122198  0.53816027    -0.19300
F2050       F  0.06901710  0.82512840  0.52391158    -0.15500
F2051       F  0.05002078  0.85657345  0.49033334    -0.19000
F2052       F  0.19956065  0.88103306  0.46197136    -0.22400
F2053       F  0.20912450  0.88852991  0.51052671    -0.23800
F2054       F  0.19113854  0.92576957  0.48261707    -0.17800
F2055       F  0.18269289  0.77172431  0.42757831    -0.20300
F2056       F  0.22978196  0.75953747  0.43851993    -0.21500
F2057       F  0.21932059  0.80543357  0.42207835    -0.18700
F2058       F  0.19935987  0.81916629  0.57976136    -0.18700
F2059       F  0.15261129  0.82659048  0.56412607    -0.22600
F2060       F  0.18710053  0.86245135  0.55803936    -0.24200
C2061       C  0.88746155  0.84364859  0.50033750    -0.11000
C2062       C  0.85813034  0.85307594  0.50493173     0.11600
C2063       C  0.85185456  0.88401658  0.50637957    -0.02800
C2064       C  0.87538093  0.90454350  0.50315847    -0.05500
C2065       C  0.90516425  0.89543935  0.49881529    -0.16300
C2066       C  0.91120913  0.86401376  0.49698835     0.02600
C2067       C  0.83484783  0.82982332  0.50991866     0.12600
C2068       C  0.82055465  0.89545361  0.51223357     0.63200
H2069       H  0.87048913  0.92815035  0.50492405     0.12600
C2070       C  0.94223770  0.85126859  0.49202860     0.55300
H2071       H  0.89161113  0.81980633  0.49996035     0.08400
C2072       C  0.82254740  0.81270346  0.48637444    -0.05400
C2073       C  0.80108743  0.79075533  0.49318581    -0.06200
C2074       C  0.79099635  0.78620322  0.52240314    -0.15700
C2075       C  0.80374834  0.80282617  0.54591879    -0.01300
C2076       C  0.82572292  0.82422342  0.53926832    -0.08900
C2077       C  0.83161122  0.81796098  0.45421920     0.65400
H2078       H  0.79148695  0.77722852  0.47571174     0.10800
C2079       C  0.79415272  0.79798024  0.57791030     0.63800
H2080       H  0.83582675  0.83707854  0.55699219     0.08200
F2081       F  0.95426057  0.86258795  0.46600040    -0.19300
F2082       F  0.94206717  0.82040915  0.48954942    -0.15500
F2083       F  0.96022675  0.85838320  0.51588520    -0.19000
F2084       F  0.81264713  0.88934810  0.54135097    -0.22400
F2085       F  0.80054232  0.88180439  0.49326394    -0.23800
F2086       F  0.81843271  0.92602582  0.50785887    -0.17800
F2087       F  0.81263586  0.81269022  0.59769871    -0.20300
F2088       F  0.79474868  0.76788788  0.58490432    -0.21500
F2089       F  0.76562827  0.80877704  0.58172347    -0.18700
F2090       F  0.81567757  0.80009682  0.43477908    -0.18700
F2091       F  0.86146790  0.81159059  0.45049587    -0.22600
F2092       F  0.82647658  0.84746358  0.44659665    -0.24200
C2093       C  0.83459330  0.18283474  0.53832836    -0.11000
C2094       C  0.83410216  0.16416345  0.51331490     0.11600
C2095       C  0.80937070  0.16515129  0.49379881    -0.02800
C2096       C  0.78738181  0.18717721  0.49841682    -0.05500
C2097       C  0.78827567  0.20644519  0.52309801    -0.16300
C2098       C  0.81126588  0.20283742  0.54442531     0.02600
C2099       C  0.85840340  0.14180917  0.51003571     0.12600
C2100       C  0.80582210  0.14249169  0.46887715     0.63200
H2101       H  0.76907947  0.18933689  0.48295163     0.12600
C2102       C  0.81118248  0.21762092  0.57480722     0.55300
H2103       H  0.85272662  0.18062134  0.55410464     0.08400
C2104       C  0.88545418  0.14844715  0.49537634    -0.05400
C2105       C  0.90730088  0.12588966  0.49311609    -0.06200
C2106       C  0.90313145  0.09722582  0.50544132    -0.15700
C2107       C  0.87690184  0.09173698  0.52244041    -0.01300
C2108       C  0.85484479  0.11403717  0.52392860    -0.08900
C2109       C  0.89124118  0.17935767  0.48258948     0.65400
H2110       H  0.92790017  0.13059831  0.48169668     0.10800
C2111       C  0.87264472  0.06334788  0.54051391     0.63800
H2112       H  0.83444890  0.11001953  0.53615500     0.08200
F2113       F  0.83383143  0.23842156  0.57617177    -0.19300
F2114       F  0.81603786  0.19615702  0.59649657    -0.15500
F2115       F  0.78451021  0.23145503  0.58145467    -0.19000
F2116       F  0.80520999  0.11393009  0.48065502    -0.22400
F2117       F  0.82929578  0.14462796  0.44913136    -0.23800
F2118       F  0.77965618  0.14682793  0.45319622    -0.17800
F2119       F  0.84958704  0.06602415  0.56080160    -0.20300
F2120       F  0.89822715  0.05727848  0.55647785    -0.21500
F2121       F  0.86616711  0.03971155  0.52182406    -0.18700
F2122       F  0.91911574  0.18136157  0.46963160    -0.18700
F2123       F  0.88960708  0.20048575  0.50497888    -0.22600
F2124       F  0.87025783  0.18604573  0.46112220    -0.24200
C2125       C  0.15207765  0.11651840  0.47170178    -0.11000
C2126       C  0.14427582  0.14584088  0.47920314     0.11600
C2127       C  0.11490938  0.15218735  0.48844760    -0.02800
C2128       C  0.09489306  0.12828514  0.49229419    -0.05500
C2129       C  0.10290421  0.09837706  0.48626631    -0.16300
C2130       C  0.13196017  0.09257304  0.47462421     0.02600
C2131       C  0.16749021  0.16933196  0.47621083     0.12600
C2132       C  0.10459677  0.18412792  0.49347579     0.63200
H2133       H  0.07254059  0.13303135  0.49983297     0.12600
C2134       C  0.14195321  0.06176863  0.46429836     0.55300
H2135       H  0.17446436  0.11257939  0.46365192     0.08400
C2136       C  0.18934805  0.17393879  0.49843558    -0.05400
C2137       C  0.21202152  0.19495283  0.49311761    -0.06200
C2138       C  0.21384207  0.21095821  0.46628950    -0.15700
C2139       C  0.19227798  0.20577432  0.44378612    -0.01300
C2140       C  0.16920639  0.18531205  0.44940414    -0.08900
C2141       C  0.18850178  0.15703100  0.52778877     0.65400
H2142       H  0.22834348  0.19960675  0.51016954     0.10800
C2143       C  0.19291081  0.22038359  0.41332532     0.63800
H2144       H  0.15275507  0.18105169  0.43227732     0.08200
F2145       F  0.14491559  0.04287682  0.48851122    -0.19300
F2146       F  0.16914672  0.06267584  0.44980343    -0.15500
F2147       F  0.12147188  0.05024182  0.44445728    -0.19000
F2148       F  0.10711704  0.20014015  0.46726007    -0.22400
F2149       F  0.12181552  0.19761592  0.51507989    -0.23800
F2150       F  0.07518244  0.18541647  0.50254489    -0.17800
F2151       F  0.18917379  0.19885402  0.39154737    -0.20300
F2152       F  0.21940255  0.23472672  0.40751481    -0.21500
F2153       F  0.16989193  0.24080993  0.41127532    -0.18700
F2154       F  0.21224200  0.16445906  0.54594806    -0.18700
F2155       F  0.18970112  0.12659919  0.52270813    -0.22600
F2156       F  0.16252945  0.16370006  0.54286211    -0.24200
C2157       C  0.97969878  0.65288168  0.19536922    -0.11000
C2158       C  0.99908059  0.65642717  0.17111907     0.11600
C2159       C  0.01605317  0.68280103  0.16817073    -0.02800
C2160       C  0.01340910  0.70470375  0.19019637    -0.05500
C2161       C  0.99329745  0.70183207  0.21397000    -0.16300
C2162       C  0.97554731  0.67578500  0.21639754     0.02600
C2163       C  0.99877520  0.63380760  0.14727383     0.12600
C2164       C  0.03551035  0.68863259  0.14103854     0.63200
H2165       H  0.02626626  0.72509714  0.18838284     0.12600
C2166       C  0.95120360  0.67147121  0.23940639     0.55300
H2167       H  0.96639711  0.63272477  0.19682839     0.08400
C2168       C  0.01829453  0.60907497  0.14729781    -0.05400
C2169       C  0.01846098  0.59022231  0.12232670    -0.06200
C2170       C  0.99914219  0.59496997  0.09812749    -0.15700
C2171       C  0.97827139  0.61872011  0.09911410    -0.01300
C2172       C  0.97878331  0.63805070  0.12371063    -0.08900
C2173       C  0.03813541  0.60227695  0.17387348     0.65400
H2174       H  0.03353058  0.57131968  0.12162226     0.10800
C2175       C  0.95477475  0.62295880  0.07513330     0.63800
H2176       H  0.96366433  0.65689790  0.12474333     0.08200
F2177       F  0.96049402  0.65055693  0.26001351    -0.19300
F2178       F  0.92569543  0.66102043  0.22568953    -0.15500
F2179       F  0.94371219  0.69752116  0.25406807    -0.19000
F2180       F  0.01782848  0.69102342  0.11598117    -0.22400
F2181       F  0.05554681  0.66557635  0.13698023    -0.23800
F2182       F  0.05159116  0.71485673  0.14382212    -0.17800
F2183       F  0.93458433  0.64511705  0.08259701    -0.20300
F2184       F  0.93907643  0.59667169  0.07122001    -0.21500
F2185       F  0.96810175  0.63100998  0.04857891    -0.18700
F2186       F  0.05551293  0.57714800  0.16915862    -0.18700
F2187       F  0.02067896  0.59724132  0.19872688    -0.22600
F2188       F  0.05691574  0.62600873  0.17956308    -0.24200
C2189       C  0.99671975  0.87370044  0.34951417    -0.11000
C2190       C  0.00854059  0.84664548  0.35990525     0.11600
C2191       C  0.02097459  0.84485186  0.38864121    -0.02800
C2192       C  0.02042466  0.87045804  0.40655187    -0.05500
C2193       C  0.00720706  0.89741650  0.39694409    -0.16300
C2194       C  0.99508110  0.89913710  0.36776103     0.02600
C2195       C  0.00640889  0.82033318  0.34027397     0.12600
C2196       C  0.03422424  0.81590298  0.40047478     0.63200
H2197       H  0.03011183  0.86937697  0.42858745     0.12600
C2198       C  0.97929247  0.92685248  0.35613294     0.55300
H2199       H  0.98787874  0.87433947  0.32708879     0.08400
C2200       C  0.97902795  0.80544610  0.33589947    -0.05400
C2201       C  0.97731799  0.78369361  0.31357863    -0.06200
C2202       C  0.00223002  0.77580547  0.29654123    -0.15700
C2203       C  0.03013182  0.78912568  0.30246416    -0.01300
C2204       C  0.03166355  0.81167280  0.32413362    -0.08900
C2205       C  0.95126882  0.81376124  0.35336927     0.65400
H2206       H  0.95588799  0.77438288  0.30770649     0.10800
C2207       C  0.05785489  0.78012179  0.28537813     0.63800
H2208       H  0.05232990  0.82348505  0.32794088     0.08200
F2209       F  0.96599442  0.92189431  0.32877947    -0.19300
F2210       F  0.99947712  0.94990092  0.35266594    -0.15500
F2211       F  0.95718694  0.93531201  0.37584922    -0.19000
F2212       F  0.05847956  0.80774837  0.38339559    -0.22400
F2213       F  0.01322841  0.79336762  0.39943103    -0.23800
F2214       F  0.04366269  0.81867469  0.42967767    -0.17800
F2215       F  0.08249981  0.79644197  0.29413685    -0.20300
F2216       F  0.05377632  0.78463676  0.25519485    -0.21500
F2217       F  0.06372863  0.75024633  0.29055454    -0.18700
F2218       F  0.92850669  0.79347138  0.34874599    -0.18700
F2219       F  0.94134629  0.84166055  0.34462347    -0.22600
F2220       F  0.95739231  0.81423170  0.38352827    -0.24200
C2221       C  0.00969846  0.30814417  0.82847729    -0.11000
C2222       C  0.98990480  0.33218374  0.82793820     0.11600
C2223       C  0.97021241  0.33583601  0.80364367    -0.02800
C2224       C  0.96937053  0.31347617  0.78165538    -0.05500
C2225       C  0.98825501  0.28849159  0.78290536    -0.16300
C2226       C  0.00948758  0.28622111  0.80628439     0.02600
C2227       C  0.99141162  0.35382428  0.85267309     0.12600
C2228       C  0.94993912  0.36293657  0.80132654     0.63200
H2229       H  0.95293219  0.31470561  0.76416854     0.12600
C2230       C  0.03237782  0.26140736  0.80949571     0.55300
H2231       H  0.02543416  0.30637398  0.84671270     0.08400
C2232       C  0.97730256  0.34867140  0.88037200    -0.05400
C2233       C  0.97960940  0.37061354  0.90260272    -0.06200
C2234       C  0.99567153  0.39712106  0.89789892    -0.15700
C2235       C  0.01089583  0.40149762  0.87038194    -0.01300
C2236       C  0.00852075  0.37947775  0.84835185    -0.08900
C2237       C  0.96012290  0.32008345  0.88641888     0.65400
H2238       H  0.96848854  0.36738529  0.92375979     0.10800
C2239       C  0.02985091  0.42891794  0.86393663     0.63800
H2240       H  0.01969685  0.38225880  0.82715192     0.08200
F2241       F  0.02682432  0.24569564  0.83545715    -0.19300
F2242       F  0.06044398  0.27395357  0.81135101    -0.15500
F2243       F  0.03260224  0.24152764  0.78604392    -0.19000
F2244       F  0.96685417  0.38865534  0.79947363    -0.22400
F2245       F  0.93179609  0.36464786  0.82613303    -0.23800
F2246       F  0.93197910  0.36170331  0.77632975    -0.17800
F2247       F  0.04927233  0.43394983  0.88726037    -0.20300
F2248       F  0.01172913  0.45358901  0.85986980    -0.21500
F2249       F  0.04673531  0.42549202  0.83836627    -0.18700
F2250       F  0.94677609  0.32035766  0.91421675    -0.18700
F2251       F  0.97924513  0.29589366  0.88531409    -0.22600
F2252       F  0.93807661  0.31642557  0.86529822    -0.24200
C2253       C  0.96960168  0.18625951  0.65626910    -0.11000
C2254       C  0.99801836  0.17328616  0.65495732     0.11600
C2255       C  0.02110067  0.18457289  0.67312933    -0.02800
C2256       C  0.01416645  0.20678930  0.69413824    -0.05500
C2257       C  0.98526338  0.21832116  0.69696298    -0.16300
C2258       C  0.96276158  0.20872076  0.67714263     0.02600
C2259       C  0.00265002  0.14720793  0.63504069     0.12600
C2260       C  0.05267791  0.17262082  0.67085680     0.63200
H2261       H  0.03089384  0.21390472  0.70989350     0.12600
C2262       C  0.93176048  0.22214451  0.67814071     0.55300
H2263       H  0.95256612  0.17789124  0.64141827     0.08400
C2264       C  0.99464782  0.11785497  0.64368419    -0.05400
C2265       C  0.99822403  0.09439258  0.62309107    -0.06200
C2266       C  0.00941877  0.09942947  0.59426840    -0.15700
C2267       C  0.02005276  0.12857428  0.58687362    -0.01300
C2268       C  0.01551889  0.15207271  0.60713632    -0.08900
C2269       C  0.98181359  0.11152231  0.67434821     0.65400
H2270       H  0.99134024  0.07205318  0.62915269     0.10800
C2271       C  0.03701875  0.13520171  0.55832744     0.63800
H2272       H  0.02191643  0.17466013  0.60124491     0.08200
F2273       F  0.91306647  0.20926702  0.65730876    -0.19300
F2274       F  0.93348449  0.25234401  0.67202471    -0.15500
F2275       F  0.91920684  0.21812945  0.70596456    -0.19000
F2276       F  0.06401980  0.17882688  0.64292553    -0.22400
F2277       F  0.05303402  0.14205299  0.67532287    -0.23800
F2278       F  0.07128062  0.18551407  0.69175471    -0.17800
F2279       F  0.01743528  0.13777259  0.53471360    -0.20300
F2280       F  0.05734565  0.11264033  0.55275074    -0.21500
F2281       F  0.05282057  0.16166950  0.56039020    -0.18700
F2282       F  0.97772960  0.08124602  0.67910693    -0.18700
F2283       F  0.95458376  0.12559087  0.67728128    -0.22600
F2284       F  0.00081515  0.12194847  0.69616155    -0.24200
C2285       C  0.03315110  0.65560816  0.80131933    -0.11000
C2286       C  0.00831450  0.65213056  0.81982295     0.11600
C2287       C  0.98338386  0.67109179  0.81660565    -0.02800
C2288       C  0.98437588  0.69349785  0.79484754    -0.05500
C2289       C  0.00905787  0.69703626  0.77603074    -0.16300
C2290       C  0.03410655  0.67808949  0.77945278     0.02600
C2291       C  0.00979357  0.63019702  0.84424788     0.12600
C2292       C  0.95650234  0.66859898  0.83707065     0.63200
H2293       H  0.96651291  0.70966701  0.79365097     0.12600
C2294       C  0.06224706  0.68253706  0.76129971     0.55300
H2295       H  0.05213949  0.64110880  0.80485296     0.08400
C2296       C  0.00119932  0.60025160  0.84023377    -0.05400
C2297       C  0.99849029  0.58207861  0.86550163    -0.06200
C2298       C  0.00584876  0.59242829  0.89431567    -0.15700
C2299       C  0.01750175  0.62181339  0.89755635    -0.01300
C2300       C  0.01876158  0.64032119  0.87230332    -0.08900
C2301       C  0.99531134  0.58763023  0.80937570     0.65400
H2302       H  0.99050189  0.55945314  0.86267929     0.10800
C2303       C  0.02924026  0.63371853  0.92696532     0.63800
H2304       H  0.02619627  0.66325740  0.87426835     0.08200
F2305       F  0.05641130  0.67689979  0.73170209    -0.19300
F2306       F  0.08481033  0.66346848  0.77028485    -0.15500
F2307       F  0.07242038  0.71153054  0.76435475    -0.19000
F2308       F  0.96470970  0.67515004  0.86599037    -0.22400
F2309       F  0.94508198  0.63994609  0.83613232    -0.23800
F2310       F  0.93404066  0.68815002  0.82891947    -0.17800
F2311       F  0.05012370  0.61413267  0.93846439    -0.20300
F2312       F  0.00607542  0.63724897  0.94691164    -0.21500
F2313       F  0.04293948  0.66121806  0.92367423    -0.18700
F2314       F  0.98849287  0.55747517  0.81032108    -0.18700
F2315       F  0.02040345  0.59103359  0.79187237    -0.22600
F2316       F  0.97182644  0.60252545  0.79614163    -0.24200
C2317       C  0.98473290  0.80941518  0.66317308    -0.11000
C2318       C  0.01187826  0.81746977  0.65019257     0.11600
C2319       C  0.03855201  0.80343456  0.65941714    -0.02800
C2320       C  0.03716915  0.78243317  0.68267694    -0.05500
C2321       C  0.01007283  0.77521129  0.69644616    -0.16300
C2322       C  0.98334201  0.78837355  0.68628446     0.02600
C2323       C  0.01171380  0.84276758  0.62905261     0.12600
C2324       C  0.06837401  0.81169658  0.64576625     0.63200
H2325       H  0.05745075  0.77272578  0.69144178     0.12600
C2326       C  0.95356998  0.78056041  0.70008575     0.55300
H2327       H  0.96469910  0.82055250  0.65561877     0.08400
C2328       C  0.00331813  0.83931131  0.59905498    -0.05400
C2329       C  0.00207837  0.86487081  0.58097877    -0.06200
C2330       C  0.00832614  0.89383685  0.59192263    -0.15700
C2331       C  0.01702920  0.89694026  0.62226695    -0.01300
C2332       C  0.01835804  0.87117602  0.64022556    -0.08900
C2333       C  0.99453742  0.80899431  0.58649566     0.65400
H2334       H  0.99556044  0.86221023  0.55802705     0.10800
C2335       C  0.02525442  0.92683049  0.63599767     0.63800
H2336       H  0.02427978  0.87293245  0.66353081     0.08200
F2337       F  0.94720056  0.75106193  0.69397690    -0.19300
F2338       F  0.93073380  0.79791350  0.68871487    -0.15500
F2339       F  0.95433174  0.78480839  0.73057479    -0.19000
F2340       F  0.07565796  0.84068525  0.65342905    -0.22400
F2341       F  0.06703703  0.80954753  0.61509614    -0.23800
F2342       F  0.09091896  0.79301625  0.65556806    -0.17800
F2343       F  0.03515493  0.92380748  0.66503214    -0.20300
F2344       F  0.00061655  0.94537356  0.63646836    -0.21500
F2345       F  0.04790723  0.93995052  0.61974742    -0.18700
F2346       F  0.99139760  0.80981683  0.55583807    -0.18700
F2347       F  0.96769081  0.80022882  0.59870374    -0.22600
F2348       F  0.01586895  0.78774121  0.59317008    -0.24200
C2349       C  0.11451711  0.64561444  0.51385275    -0.11000
C2350       C  0.14194476  0.64095470  0.50002521     0.11600
C2351       C  0.14895680  0.61246993  0.48822412    -0.02800
C2352       C  0.12685451  0.59015313  0.48835764    -0.05500
C2353       C  0.09861258  0.59510167  0.50093456    -0.16300
C2354       C  0.09277512  0.62310289  0.51512814     0.02600
C2355       C  0.16309339  0.66634725  0.49904103     0.12600
C2356       C  0.17993258  0.60538599  0.47654901     0.63200
H2357       H  0.13149100  0.56862093  0.47843716     0.12600
C2358       C  0.06416573  0.62964762  0.53205684     0.55300
H2359       H  0.11018143  0.66740217  0.52344157     0.08400
C2360       C  0.16532508  0.68538882  0.47394385    -0.05400
C2361       C  0.18781563  0.70725404  0.47357235    -0.06200
C2362       C  0.20622507  0.71201235  0.49829667    -0.15700
C2363       C  0.20168678  0.69506447  0.52459973    -0.01300
C2364       C  0.18040316  0.67204805  0.52432713    -0.08900
C2365       C  0.14329798  0.68345496  0.44834076     0.65400
H2366       H  0.19166362  0.72021194  0.45365496     0.10800
C2367       C  0.21907617  0.70150735  0.55288528     0.63800
H2368       H  0.17724800  0.65805658  0.54376869     0.08200
F2369       F  0.04110626  0.63410454  0.51219649    -0.19300
F2370       F  0.06656113  0.65513031  0.54939358    -0.15500
F2371       F  0.05748115  0.60615923  0.55093864    -0.19000
F2372       F  0.20026097  0.60800819  0.49947488    -0.22400
F2373       F  0.18782732  0.62486033  0.45402588    -0.23800
F2374       F  0.18171880  0.57661694  0.46535480    -0.17800
F2375       F  0.21062130  0.68291858  0.57605216    -0.20300
F2376       F  0.21389662  0.73068596  0.56153272    -0.21500
F2377       F  0.24921344  0.69754946  0.54825416    -0.18700
F2378       F  0.15073538  0.70270302  0.42536676    -0.18700
F2379       F  0.11533017  0.69115449  0.45861161    -0.22600
F2380       F  0.14212826  0.65487518  0.43682522    -0.24200
C2381       C  0.84810643  0.37438341  0.50322959    -0.11000
C2382       C  0.86013307  0.34564539  0.50660357     0.11600
C2383       C  0.89087804  0.34105606  0.50286496    -0.02800
C2384       C  0.90906545  0.36604054  0.49829361    -0.05500
C2385       C  0.89767699  0.39554635  0.49711828    -0.16300
C2386       C  0.86622592  0.39962929  0.49835282     0.02600
C2387       C  0.83960823  0.32062926  0.51303610     0.12600
C2388       C  0.90439412  0.30986763  0.50354605     0.63200
H2389       H  0.93272137  0.36235032  0.49600832     0.12600
C2390       C  0.85139442  0.42992668  0.49426325     0.55300
H2391       H  0.82419200  0.37682695  0.50498130     0.08400
C2392       C  0.82884337  0.31498016  0.54209187    -0.05400
C2393       C  0.80713044  0.29274677  0.54590760    -0.06200
C2394       C  0.79608331  0.27616699  0.52180222    -0.15700
C2395       C  0.80725187  0.28168138  0.49273012    -0.01300
C2396       C  0.82912606  0.30372823  0.48903681    -0.08900
C2397       C  0.83985220  0.33265103  0.56881504     0.65400
H2398       H  0.79761088  0.28892493  0.56773860     0.10800
C2399       C  0.79617290  0.26670699  0.46450820     0.63800
H2400       H  0.83728392  0.30873518  0.46684933     0.08200
F2401       F  0.85904430  0.44876708  0.51740542    -0.19300
F2402       F  0.82066799  0.42775386  0.49389310    -0.15500
F2403       F  0.86011863  0.44230306  0.46739434    -0.19000
F2404       F  0.89261441  0.29287692  0.48075431    -0.22400
F2405       F  0.89825730  0.29613039  0.53042150    -0.23800
F2406       F  0.93498245  0.31046372  0.49994514    -0.17800
F2407       F  0.78631463  0.28837195  0.44483086    -0.20300
F2408       F  0.77308659  0.24700265  0.46913943    -0.21500
F2409       F  0.81945768  0.25127557  0.45146156    -0.18700
F2410       F  0.82577070  0.32400447  0.59485601    -0.18700
F2411       F  0.83450919  0.36280026  0.56472796    -0.22600
F2412       F  0.87006026  0.32820870  0.57244290    -0.24200
C2413       C  0.10655060  0.34012426  0.47015334    -0.11000
C2414       C  0.13525536  0.34333922  0.48146904     0.11600
C2415       C  0.14344959  0.37018440  0.49592795    -0.02800
C2416       C  0.12198309  0.39289956  0.49929793    -0.05500
C2417       C  0.09286814  0.38978210  0.48827976    -0.16300
C2418       C  0.08516181  0.36290880  0.47288456     0.02600
C2419       C  0.15732361  0.31968093  0.47461471     0.12600
C2420       C  0.17500700  0.37498353  0.50704605     0.63200
H2421       H  0.12803008  0.41355313  0.51017276     0.12600
C2422       C  0.05531984  0.35858233  0.45760170     0.55300
H2423       H  0.10133366  0.31968107  0.45837023     0.08400
C2424       C  0.16091803  0.29375908  0.49232425    -0.05400
C2425       C  0.18488396  0.27445589  0.48609308    -0.06200
C2426       C  0.20445882  0.27996690  0.46230976    -0.15700
C2427       C  0.19878661  0.30441731  0.44286338    -0.01300
C2428       C  0.17531815  0.32388197  0.44958095    -0.08900
C2429       C  0.13981884  0.28679704  0.51777917     0.65400
H2430       H  0.18942785  0.25584730  0.50080710     0.10800
C2431       C  0.21679649  0.31178984  0.41516499     0.63800
H2432       H  0.17145767  0.34323321  0.43551192     0.08200
F2433       F  0.05476649  0.33314245  0.44009119    -0.19300
F2434       F  0.04969514  0.38270637  0.43922560    -0.15500
F2435       F  0.03301268  0.35576359  0.47861565    -0.19000
F2436       F  0.19453239  0.37510562  0.48326380    -0.22400
F2437       F  0.18289982  0.35230875  0.52643552    -0.23800
F2438       F  0.17800383  0.40189464  0.52187055    -0.17800
F2439       F  0.19773100  0.31491905  0.39117377    -0.20300
F2440       F  0.23744390  0.29019378  0.40780041    -0.21500
F2441       F  0.23153809  0.33854778  0.41950691    -0.18700
F2442       F  0.14796911  0.26099824  0.53278027    -0.18700
F2443       F  0.11141460  0.28276477  0.50671688    -0.22600
F2444       F  0.13953642  0.31007751  0.53797432    -0.24200
C2445       C  0.88984822  0.65174811  0.48428760    -0.11000
C2446       C  0.86659900  0.64992063  0.50493240     0.11600
C2447       C  0.86106124  0.62270468  0.52007978    -0.02800
C2448       C  0.88049516  0.59855878  0.51543305    -0.05500
C2449       C  0.90457503  0.60064723  0.49568624    -0.16300
C2450       C  0.90894108  0.62740058  0.47907835     0.02600
C2451       C  0.84628058  0.67575583  0.50783882     0.12600
C2452       C  0.83437935  0.61899464  0.54056541     0.63200
H2453       H  0.87733123  0.57792600  0.52765966     0.12600
C2454       C  0.93320451  0.63035665  0.45563263     0.55300
H2455       H  0.89287947  0.67251950  0.47224577     0.08400
C2456       C  0.84978613  0.69801561  0.52994880    -0.05400
C2457       C  0.82642681  0.71858653  0.53440442    -0.06200
C2458       C  0.80099736  0.71819726  0.51630180    -0.15700
C2459       C  0.79992736  0.69874709  0.49145539    -0.01300
C2460       C  0.82217575  0.67711684  0.48826211    -0.08900
C2461       C  0.87807215  0.70015400  0.54828113     0.65400
H2462       H  0.82734565  0.73421618  0.55272023     0.10800
C2463       C  0.77505209  0.69917849  0.46866822     0.63800
H2464       H  0.82043643  0.66062703  0.47066423     0.08200
F2465       F  0.96053582  0.63358941  0.46931693    -0.19300
F2466       F  0.92870126  0.65504164  0.43754885    -0.15500
F2467       F  0.93363128  0.60533105  0.43755004    -0.19000
F2468       F  0.80843768  0.62332638  0.52461710    -0.22400
F2469       F  0.83554954  0.63954952  0.56345349    -0.23800
F2470       F  0.83332155  0.59072392  0.55309190    -0.17800
F2471       F  0.78664710  0.69465225  0.44046340    -0.20300
F2472       F  0.76012172  0.72621815  0.46828652    -0.21500
F2473       F  0.75512455  0.67651843  0.47494055    -0.18700
F2474       F  0.87639185  0.72276750  0.56924142    -0.18700
F2475       F  0.90176624  0.70617295  0.52957705    -0.22600
F2476       F  0.88350937  0.67363282  0.56309631    -0.24200
C2477       C  0.16285306  0.46325722  0.30548845    -0.11000
C2478       C  0.15626000  0.49130450  0.31777404     0.11600
C2479       C  0.17189080  0.51693162  0.30793138    -0.02800
C2480       C  0.19447426  0.51336088  0.28656732    -0.05500
C2481       C  0.20199761  0.48515032  0.27520341    -0.16300
C2482       C  0.18574205  0.45965780  0.28436361     0.02600
C2483       C  0.13488428  0.49269094  0.34292312     0.12600
C2484       C  0.16567796  0.54767048  0.32092502     0.63200
H2485       H  0.20777745  0.53238827  0.27985054     0.12600
C2486       C  0.19309161  0.42873882  0.27256464     0.55300
H2487       H  0.15055480  0.44402420  0.31341999     0.08400
C2488       C  0.10387068  0.49428245  0.33856028    -0.05400
C2489       C  0.08527062  0.49514556  0.36369679    -0.06200
C2490       C  0.09646391  0.49434222  0.39314623    -0.15700
C2491       C  0.12796715  0.49323372  0.39724580    -0.01300
C2492       C  0.14641793  0.49211013  0.37187841    -0.08900
C2493       C  0.09025997  0.49378093  0.30757032     0.65400
H2494       H  0.06148538  0.49585679  0.36015516     0.10800
C2495       C  0.14261261  0.49316014  0.42778718     0.63800
H2496       H  0.17035327  0.49076779  0.37432066     0.08200
F2497       F  0.18608170  0.42746312  0.24267506    -0.19300
F2498       F  0.17712276  0.40667875  0.28711401    -0.15500
F2499       F  0.22302125  0.42254111  0.27628619    -0.19000
F2500       F  0.17292327  0.54797783  0.35082162    -0.22400
F2501       F  0.13591852  0.55475572  0.31778289    -0.23800
F2502       F  0.18209911  0.56970877  0.30684575    -0.17800
F2503       F  0.17336081  0.49279844  0.42591145    -0.20300
F2504       F  0.13402469  0.46800660  0.44352849    -0.21500
F2505       F  0.13465970  0.51867900  0.44323950    -0.18700
F2506       F  0.06032332  0.50112838  0.30816405    -0.18700
F2507       F  0.09316080  0.46545903  0.29566580    -0.22600
F2508       F  0.10433815  0.51399842  0.28905182    -0.24200
C2509       C  0.85321912  0.51613833  0.37079879    -0.11000
C2510       C  0.86250492  0.50551564  0.34298441     0.11600
C2511       C  0.89181014  0.49491491  0.33923650    -0.02800
C2512       C  0.90991576  0.49208322  0.36457369    -0.05500
C2513       C  0.90057398  0.50190916  0.39297946    -0.16300
C2514       C  0.87210172  0.51562059  0.39577443     0.02600
C2515       C  0.84113371  0.50729127  0.31802441     0.12600
C2516       C  0.90432870  0.48816399  0.30848891     0.63200
H2517       H  0.93196401  0.48266848  0.36208070     0.12600
C2518       C  0.86177408  0.53082553  0.42421480     0.55300
H2519       H  0.83094639  0.52524392  0.37263610     0.08400
C2520       C  0.82095278  0.48383355  0.31193835    -0.05400
C2521       C  0.79900686  0.48848874  0.29018935    -0.06200
C2522       C  0.79606848  0.51598167  0.27541930    -0.15700
C2523       C  0.81661686  0.53919476  0.28107764    -0.01300
C2524       C  0.83913250  0.53429162  0.30226668    -0.08900
C2525       C  0.82114370  0.45492227  0.32979609     0.65400
H2526       H  0.78248461  0.47138187  0.28601394     0.10800
C2527       C  0.81443222  0.56909364  0.26532822     0.63800
H2528       H  0.85479004  0.55188821  0.30754947     0.08200
F2529       F  0.85516279  0.50953731  0.44553439    -0.19300
F2530       F  0.83652006  0.54797603  0.41954801    -0.15500
F2531       F  0.88370312  0.54975238  0.43471890    -0.19000
F2532       F  0.90354053  0.51381995  0.29131536    -0.22400
F2533       F  0.88780007  0.46628978  0.29453510    -0.23800
F2534       F  0.93355642  0.47845610  0.30985004    -0.17800
F2535       F  0.83510928  0.58933579  0.27599157    -0.20300
F2536       F  0.78642832  0.58130644  0.26925714    -0.21500
F2537       F  0.81972940  0.56508586  0.23534168    -0.18700
F2538       F  0.80050452  0.43463089  0.31913000    -0.18700
F2539       F  0.81435281  0.46095677  0.35920212    -0.22600
F2540       F  0.84879396  0.44152510  0.32851059    -0.24200
C2541       C  0.13939008  0.46386367  0.61982634    -0.11000
C2542       C  0.13356133  0.47965641  0.64613288     0.11600
C2543       C  0.10948009  0.49997209  0.64721169    -0.02800
C2544       C  0.09090104  0.50249332  0.62218911    -0.05500
C2545       C  0.09608320  0.48601035  0.59605958    -0.16300
C2546       C  0.12089464  0.46636749  0.59470385     0.02600
C2547       C  0.15435193  0.47540744  0.67143229     0.12600
C2548       C  0.10357589  0.51910265  0.67447330     0.63200
H2549       H  0.07214679  0.51770790  0.62274155     0.12600
C2550       C  0.12744415  0.44732605  0.56750791     0.55300
H2551       H  0.15866136  0.44930944  0.61928837     0.08400
C2552       C  0.15432629  0.44915646  0.68909305    -0.05400
C2553       C  0.17742905  0.44498759  0.70987261    -0.06200
C2554       C  0.20001206  0.46632073  0.71367922    -0.15700
C2555       C  0.19983221  0.49262947  0.69595038    -0.01300
C2556       C  0.17666856  0.49678175  0.67544396    -0.08900
C2557       C  0.13013729  0.42564941  0.68585400     0.65400
H2558       H  0.17865969  0.42440150  0.72247197     0.10800
C2559       C  0.22357828  0.51678398  0.69683010     0.63800
H2560       H  0.17677094  0.51641033  0.66125401     0.08200
F2561       F  0.10234271  0.43130458  0.55967653    -0.19300
F2562       F  0.15013583  0.42705087  0.57277614    -0.15500
F2563       F  0.13606813  0.46538153  0.54403510    -0.19000
F2564       F  0.12709477  0.53842134  0.67899747    -0.22400
F2565       F  0.10016254  0.50115381  0.69929730    -0.23800
F2566       F  0.07805942  0.53613514  0.67128949    -0.17800
F2567       F  0.21164580  0.54215346  0.70972473    -0.20300
F2568       F  0.23245561  0.52363806  0.66810801    -0.21500
F2569       F  0.24873373  0.50870804  0.71246151    -0.18700
F2570       F  0.13366559  0.40251576  0.70604860    -0.18700
F2571       F  0.13072141  0.41351113  0.65758411    -0.22600
F2572       F  0.10259569  0.43853562  0.69073676    -0.24200
C2573       C  0.88130350  0.51613914  0.64456545    -0.11000
C2574       C  0.85872156  0.49460396  0.64351897     0.11600
C2575       C  0.85544319  0.47655093  0.61781172    -0.02800
C2576       C  0.87622225  0.47950045  0.59457647    -0.05500
C2577       C  0.89969894  0.50004397  0.59615647    -0.16300
C2578       C  0.90182411  0.51943976  0.62109325     0.02600
C2579       C  0.83814308  0.49193068  0.66925988     0.12600
C2580       C  0.83023272  0.45411554  0.61502991     0.63200
H2581       H  0.87478978  0.46512480  0.57525315     0.12600
C2582       C  0.92527808  0.54379520  0.62296511     0.55300
H2583       H  0.88295583  0.53014913  0.66415364     0.08400
C2584       C  0.84395834  0.47254192  0.69350106    -0.05400
C2585       C  0.82140967  0.46784727  0.71481418    -0.06200
C2586       C  0.79399518  0.48278774  0.71303263    -0.15700
C2587       C  0.78942276  0.50435411  0.69020181    -0.01300
C2588       C  0.81162185  0.50831428  0.66856737    -0.08900
C2589       C  0.87387383  0.45709930  0.69681290     0.65400
H2590       H  0.82459310  0.45148946  0.73227165     0.10800
C2591       C  0.76154943  0.52338523  0.68694064     0.63800
H2592       H  0.80785114  0.52379078  0.65034156     0.08200
F2593       F  0.95228333  0.53144221  0.63111431    -0.19300
F2594       F  0.91768028  0.56528572  0.64379823    -0.15500
F2595       F  0.92824075  0.55802828  0.59576681    -0.19000
F2596       F  0.80318352  0.46867867  0.61714519    -0.22400
F2597       F  0.83216999  0.43303269  0.63744783    -0.23800
F2598       F  0.83097250  0.43925014  0.58801120    -0.17800
F2599       F  0.76955887  0.55321888  0.68584187    -0.20300
F2600       F  0.74156168  0.52001654  0.71002116    -0.21500
F2601       F  0.74730689  0.51602340  0.66067718    -0.18700
F2602       F  0.87432087  0.43788415  0.72099031    -0.18700
F2603       F  0.89572507  0.47841149  0.70094150    -0.22600
F2604       F  0.88051139  0.44067165  0.67162555    -0.24200
C2605       C  0.02253705  0.66044868  0.30175618    -0.11000
C2606       C  0.00236711  0.66024358  0.32560504     0.11600
C2607       C  0.98261818  0.68451844  0.32948671    -0.02800
C2608       C  0.98193241  0.70692163  0.30766299    -0.05500
C2609       C  0.00207365  0.70751319  0.28375413    -0.16300
C2610       C  0.02363275  0.68438801  0.28138326     0.02600
C2611       C  0.00402287  0.63574920  0.34776965     0.12600
C2612       C  0.96280155  0.68714494  0.35684965     0.63200
H2613       H  0.96518964  0.72412063  0.30887845     0.12600
C2614       C  0.04883470  0.68430310  0.25897937     0.55300
H2615       H  0.03840811  0.64228191  0.29978421     0.08400
C2616       C  0.98776129  0.60890286  0.34466684    -0.05400
C2617       C  0.98829871  0.58814698  0.36818063    -0.06200
C2618       C  0.00424509  0.59359292  0.39459036    -0.15700
C2619       C  0.02150927  0.62009704  0.39702699    -0.01300
C2620       C  0.02139037  0.64046232  0.37318111    -0.08900
C2621       C  0.96966417  0.60242668  0.31687106     0.65400
H2622       H  0.97547902  0.56774427  0.36641365     0.10800
C2623       C  0.03989685  0.62728292  0.42447968     0.63800
H2624       H  0.03394538  0.66106189  0.37464329     0.08200
F2625       F  0.04428094  0.66168578  0.23852988    -0.19300
F2626       F  0.07544301  0.67901270  0.27356948    -0.15500
F2627       F  0.05158352  0.71117677  0.24410281    -0.19000
F2628       F  0.98016031  0.68860340  0.38220186    -0.22400
F2629       F  0.94416356  0.66270552  0.35891721    -0.23800
F2630       F  0.94535513  0.71265538  0.35599863    -0.17800
F2631       F  0.05762982  0.60313643  0.43196135    -0.20300
F2632       F  0.02120490  0.63411272  0.44795747    -0.21500
F2633       F  0.05838146  0.65159536  0.41988375    -0.18700
F2634       F  0.95664249  0.57440367  0.31786043    -0.18700
F2635       F  0.98787187  0.60351365  0.29208024    -0.22600
F2636       F  0.94725985  0.62337966  0.31389697    -0.24200
C2637       C  0.01308022  0.31906258  0.67813334    -0.11000
C2638       C  0.98628414  0.33310459  0.67011735     0.11600
C2639       C  0.95954869  0.32448725  0.68445620    -0.02800
C2640       C  0.96054339  0.30115041  0.70548341    -0.05500
C2641       C  0.98721074  0.28678695  0.71318495    -0.16300
C2642       C  0.01417623  0.29659199  0.70009774     0.02600
C2643       C  0.98691101  0.35586027  0.64583276     0.12600
C2644       C  0.93006908  0.33963877  0.67753834     0.63200
H2645       H  0.94026636  0.29336006  0.71592353     0.12600
C2646       C  0.04455400  0.28478310  0.70865763     0.55300
H2647       H  0.03349056  0.32590945  0.66720340     0.08400
C2648       C  0.99692318  0.38542352  0.65056380    -0.05400
C2649       C  0.99861422  0.40502915  0.62607569    -0.06200
C2650       C  0.99010146  0.39642551  0.59709262    -0.15700
C2651       C  0.97864348  0.36701897  0.59280039    -0.01300
C2652       C  0.97805621  0.34711991  0.61720224    -0.08900
C2653       C  0.00597685  0.39624597  0.68132315     0.65400
H2654       H  0.00706180  0.42739630  0.62951846     0.10800
C2655       C  0.96568560  0.35679985  0.56326760     0.63800
H2656       H  0.97047409  0.32435261  0.61419378     0.08200
F2657       F  0.06210233  0.30834045  0.71807267    -0.19300
F2658       F  0.05779194  0.27166424  0.68412089    -0.15500
F2659       F  0.04343685  0.26405711  0.73135906    -0.19000
F2660       F  0.92220678  0.33441539  0.64828059    -0.22400
F2661       F  0.93234547  0.37009274  0.68202023    -0.23800
F2662       F  0.90738612  0.32911180  0.69558605    -0.17800
F2663       F  0.98791611  0.35432760  0.54210914    -0.20300
F2664       F  0.94450228  0.37716577  0.55390387    -0.21500
F2665       F  0.95193351  0.32921763  0.56556816    -0.18700
F2666       F  0.01260964  0.42646100  0.68141305    -0.18700
F2667       F  0.03087405  0.38085272  0.69083805    -0.22600
F2668       F  0.98312551  0.39161638  0.70138728    -0.24200
C2669       C  0.98140515  0.64464393  0.61313246    -0.11000
C2670       C  0.99498848  0.63840108  0.64048005     0.11600
C2671       C  0.00640772  0.60954786  0.64612798    -0.02800
C2672       C  0.00670377  0.58861790  0.62281072    -0.05500
C2673       C  0.99473998  0.59523727  0.59456527    -0.16300
C2674       C  0.98054923  0.62339716  0.59005344     0.02600
C2675       C  0.99751257  0.66278796  0.66263718     0.12600
C2676       C  0.01791465  0.60094773  0.67677358     0.63200
H2677       H  0.01662573  0.56687082  0.62651822     0.12600
C2678       C  0.96355256  0.63092668  0.56174074     0.55300
H2679       H  0.97186495  0.66665405  0.60989818     0.08400
C2680       C  0.02163584  0.68301600  0.66211954    -0.05400
C2681       C  0.02349733  0.70474648  0.68457631    -0.06200
C2682       C  0.00170970  0.70746717  0.70683918    -0.15700
C2683       C  0.97634972  0.68851965  0.70588071    -0.01300
C2684       C  0.97513442  0.66598997  0.68411077    -0.08900
C2685       C  0.04535596  0.68150687  0.63802829     0.65400
H2686       H  0.04256329  0.71940826  0.68550011     0.10800
C2687       C  0.94951214  0.69153220  0.72609612     0.63800
H2688       H  0.95623328  0.65095100  0.68353423     0.08200
F2689       F  0.98304266  0.63451426  0.53820992    -0.19300
F2690       F  0.94747698  0.65718360  0.56452988    -0.15500
F2691       F  0.94361238  0.60830681  0.55540425    -0.19000
F2692       F  0.99565827  0.60485257  0.69767642    -0.22400
F2693       F  0.04195178  0.61858821  0.68436580    -0.23800
F2694       F  0.02679685  0.57135654  0.67788803    -0.17800
F2695       F  0.92389367  0.69246420  0.70902851    -0.20300
F2696       F  0.95008746  0.71722757  0.74300608    -0.21500
F2697       F  0.94801861  0.66695793  0.74473451    -0.18700
F2698       F  0.06642949  0.70380145  0.64128800    -0.18700
F2699       F  0.03238554  0.68488818  0.61032649    -0.22600
F2700       F  0.05979960  0.65424809  0.63913122    -0.24200
C2701       C  0.02453723  0.35315119  0.12111042    -0.11000
C2702       C  0.00978301  0.35874303  0.14795328     0.11600
C2703       C  0.99168101  0.38440487  0.15090800    -0.02800
C2704       C  0.98828370  0.40340587  0.12612374    -0.05500
C2705       C  0.00282947  0.39775224  0.09890095    -0.16300
C2706       C  0.02163655  0.37226947  0.09645590     0.02600
C2707       C  0.01486767  0.33750426  0.17274460     0.12600
C2708       C  0.97631911  0.39168946  0.18016087     0.63200
H2709       H  0.97439517  0.42311543  0.12793718     0.12600
C2710       C  0.03953772  0.36559122  0.06855545     0.55300
H2711       H  0.03867645  0.33357122  0.11980239     0.08400
C2712       C  0.00054031  0.30941058  0.17369752    -0.05400
C2713       C  0.00914817  0.28889796  0.19567023    -0.06200
C2714       C  0.03108711  0.29571766  0.21683097    -0.15700
C2715       C  0.04529303  0.32389099  0.21602534    -0.01300
C2716       C  0.03681397  0.34445716  0.19384507    -0.08900
C2717       C  0.97763972  0.30029945  0.15056189     0.65400
H2718       H  0.99975315  0.26660921  0.19561985     0.10800
C2719       C  0.06991441  0.33179796  0.23767865     0.63800
H2720       H  0.04787551  0.36588666  0.19217858     0.08200
F2721       F  0.02050323  0.35767117  0.04575527    -0.19300
F2722       F  0.05933683  0.34222517  0.07277692    -0.15500
F2723       F  0.05586946  0.39047583  0.06040843    -0.19000
F2724       F  0.99730549  0.39578493  0.20226226    -0.22400
F2725       F  0.95767179  0.36850992  0.18825818    -0.23800
F2726       F  0.95946709  0.41753322  0.17819895    -0.17800
F2727       F  0.09201961  0.31028425  0.23694553    -0.20300
F2728       F  0.05839232  0.33350536  0.26606775    -0.21500
F2729       F  0.08274782  0.35911117  0.23100119    -0.18700
F2730       F  0.96299173  0.27431011  0.15865859    -0.18700
F2731       F  0.99160014  0.29542001  0.12357180    -0.22600
F2732       F  0.95649203  0.32248481  0.14713767    -0.24200
C2733       C  0.05184103  0.18159412  0.33235636    -0.11000
C2734       C  0.02280991  0.17026829  0.33323260     0.11600
C2735       C  0.00039495  0.18323266  0.31527514    -0.02800
C2736       C  0.00854154  0.20578905  0.29508414    -0.05500
C2737       C  0.03803914  0.21574181  0.29283183    -0.16300
C2738       C  0.06001761  0.20418147  0.31230750     0.02600
C2739       C  0.01645620  0.14559475  0.35420659     0.12600
C2740       C  0.96815836  0.17326029  0.31744635     0.63200
H2741       H  0.99209433  0.21518547  0.28013918     0.12600
C2742       C  0.09206366  0.21488051  0.31346402     0.55300
H2743       H  0.06844863  0.17229400  0.34724683     0.08400
C2744       C  0.02294347  0.11546372  0.34739609    -0.05400
C2745       C  0.01772033  0.09354896  0.36927413    -0.06200
C2746       C  0.00604715  0.10078502  0.39752939    -0.15700
C2747       C  0.99858397  0.13126403  0.40362608    -0.01300
C2748       C  0.00465653  0.15304628  0.38193716    -0.08900
C2749       C  0.03552183  0.10661325  0.31722754     0.65400
H2750       H  0.02343088  0.07053875  0.36452736     0.10800
C2751       C  0.98334783  0.14128965  0.43213879     0.63800
H2752       H  0.00030186  0.17643117  0.38643039     0.08200
F2753       F  0.11094261  0.19094009  0.30867833    -0.19300
F2754       F  0.09767097  0.22649672  0.34143946    -0.15500
F2755       F  0.09863533  0.23667374  0.29267751    -0.19000
F2756       F  0.95721993  0.17961669  0.34549867    -0.22400
F2757       F  0.96600596  0.14286508  0.31247209    -0.23800
F2758       F  0.95032826  0.18769611  0.29681330    -0.17800
F2759       F  0.97391545  0.17074429  0.43056406    -0.20300
F2760       F  0.00270097  0.13909245  0.45596578    -0.21500
F2761       F  0.95853386  0.12376433  0.43702757    -0.18700
F2762       F  0.03949668  0.07602265  0.31490527    -0.18700
F2763       F  0.06279347  0.12015760  0.31282275    -0.22600
F2764       F  0.01631435  0.11545890  0.29486649    -0.24200
C2765       C  0.99152590  0.32113346  0.30650193    -0.11000
C2766       C  0.01095868  0.32588540  0.33049374     0.11600
C2767       C  0.03627806  0.30739492  0.33375550    -0.02800
C2768       C  0.04308962  0.28704773  0.31096319    -0.05500
C2769       C  0.02433301  0.28284890  0.28629995    -0.16300
C2770       C  0.99703936  0.29875642  0.28510638     0.02600
C2771       C  0.00454530  0.35037791  0.35193200     0.12600
C2772       C  0.05537061  0.30834967  0.36166682     0.63200
H2773       H  0.06339449  0.27426454  0.31212846     0.12600
C2774       C  0.97252653  0.29194515  0.26308246     0.55300
H2775       H  0.97144793  0.33449863  0.30495427     0.08400
C2776       C  0.01689817  0.37920616  0.34826179    -0.05400
C2777       C  0.01271686  0.40047104  0.37089064    -0.06200
C2778       C  0.99591621  0.39422455  0.39660061    -0.15700
C2779       C  0.98167596  0.36591303  0.39915850    -0.01300
C2780       C  0.98664714  0.34431923  0.37679738    -0.08900
C2781       C  0.03432279  0.38749709  0.32044421     0.65400
H2782       H  0.02316994  0.42216604  0.36884335     0.10800
C2783       C  0.96063765  0.35858714  0.42465271     0.63800
H2784       H  0.97698001  0.32223986  0.37876720     0.08200
F2785       F  0.97005333  0.31520457  0.24293733    -0.19300
F2786       F  0.94579613  0.28907850  0.27810840    -0.15500
F2787       F  0.97740012  0.26551214  0.24798562    -0.19000
F2788       F  0.03845096  0.29934319  0.38576131    -0.22400
F2789       F  0.06579086  0.33691443  0.36680952    -0.23800
F2790       F  0.07972645  0.28949449  0.35958016    -0.17800
F2791       F  0.94019680  0.38145796  0.42818565    -0.20300
F2792       F  0.97646313  0.35479699  0.45074448    -0.21500
F2793       F  0.94492901  0.33251356  0.41940515    -0.18700
F2794       F  0.04408368  0.41682942  0.32120633    -0.18700
F2795       F  0.01637938  0.38412135  0.29568767    -0.22600
F2796       F  0.05898476  0.36929292  0.31752465    -0.24200
loop_ 
_geom_bond_atom_site_label_1 
_geom_bond_atom_site_label_2 
_geom_bond_distance 
_geom_bond_site_symmetry_2 
_ccdc_geom_bond_type 
N1            C5   1.360       .  A
N1            C2   1.357       .  A
N1         C2769   1.448       .  S
C2            C3   1.379       .  A
C2         C2737   1.471       .  S
C3            C4   1.371       .  A
C3            H6   1.082       .  S
C4            C5   1.384       .  A
C4            H7   1.082       .  S
C5         C2714   1.477       .  S
O8           C19   1.290       .  A
O8          Eu44   2.461       .  S
O9           C20   1.290       .  A
O9          Eu43   2.460       .  S
O10          C21   1.289       .  A
O10         Eu16   2.441       .  S
O11          C22   1.290       .  A
O11         Eu16   2.441   1_455  S
O12          C22   1.292       .  A
O12         Eu46   2.474       .  S
O13          C21   1.294       .  A
O13         Eu45   2.478       .  S
O14          C20   1.290       .  A
O14         Eu16   2.448   1_455  S
O15          C19   1.292       .  A
O15         Eu16   2.462       .  S
Eu16         O26   2.343   1_655  S
Eu16         O18   2.347       .  S
Eu16         O17   2.352   1_655  S
Eu16         O24   2.347       .  S
O17         Eu46   2.354       .  S
O17         Eu43   2.344       .  S
O18         Eu44   2.353       .  S
O18         Eu45   2.358       .  S
C19        C2778   1.493       .  S
C20        C2618   1.486       .  S
C21        C2513   1.494       .  S
C22        C2490   1.505       .  S
H23          O24   0.964       .  S
O24         Eu45   2.357       .  S
O24         Eu43   2.347   1_655  S
H25          O26   0.967       .  S
O26         Eu44   2.349   1_455  S
O26         Eu46   2.359       .  S
O27          C50   1.289       .  A
O27         Eu43   2.459   1_655  S
O28          C51   1.291       .  A
O28         Eu44   2.474       .  S
O29          C52   1.296       .  A
O29         Eu45   2.480       .  S
O30          C53   1.299       .  A
O30         Eu46   2.501       .  S
O31          C54   1.298       .  A
O31         Eu46   2.494       .  S
O32          C55   1.293       .  A
O32         Eu45   2.479       .  S
O33          C56   1.288       .  A
O33         Eu47   2.442       .  S
O34          C57   1.291       .  A
O34         Eu47   2.450   1_455  S
O35          C56   1.295       .  A
O35         Eu45   2.479       .  S
O36          C57   1.291       .  A
O36         Eu46   2.460       .  S
O37          C52   1.284       .  A
O37         Eu43   2.425   1_655  S
O38          C55   1.287       .  A
O38         Eu44   2.425       .  S
O39          C54   1.286       .  A
O39         Eu44   2.442   1_455  S
O40          C53   1.284       .  A
O40         Eu43   2.430       .  S
O41          C50   1.290       .  A
O41         Eu47   2.451       .  S
O42          C51   1.291       .  A
O42         Eu47   2.453       .  S
Eu43         O61   2.350       .  S
Eu43         O49   2.343   1_455  S
Eu44         O48   2.346   1_655  S
Eu44         O59   2.346       .  S
Eu45         O59   2.358       .  S
Eu45         O49   2.354       .  S
Eu46         O48   2.365       .  S
Eu46         O61   2.364       .  S
Eu47         O48   2.351   1_655  S
Eu47         O59   2.346       .  S
Eu47         O61   2.351   1_655  S
Eu47         O49   2.347       .  S
C50        C2673   1.492       .  S
C51        C2650   1.502       .  S
C52        C2449   1.479       .  S
C53        C2353   1.494       .  S
C54        C2417   1.497       .  S
C55        C2385   1.501       .  S
C56        C2577   1.481       .  S
C57        C2545   1.483       .  S
H58          O59   0.967       .  S
H60          O61   0.966       .  S
N62          C66   1.357       .  A
N62          C63   1.360       .  A
N62        C2682   1.445       .  S
C63          C64   1.381       .  A
C63        C2289   1.474       .  S
C64          C65   1.370       .  A
C64          H67   1.082       .  S
C65          C66   1.380       .  A
C65          H68   1.082       .  S
C66        C2321   1.474       .  S
N69          C73   1.360       .  A
N69          C70   1.359       .  A
N69        C2641   1.444       .  S
C70          C71   1.382       .  A
C70        C2257   1.479       .  S
C71          C72   1.371       .  A
C71          H74   1.082       .  S
C72          C73   1.381       .  A
C72          H75   1.082       .  S
C73        C2225   1.477       .  S
N76          C80   1.358       .  A
N76          C77   1.361       .  A
N76        C2609   1.447   1_655  S
C77          C78   1.383       .  A
C77        C2161   1.475       .  S
C78          C79   1.367       .  A
C78          H81   1.082       .  S
C79          C80   1.378       .  A
C79          H82   1.082       .  S
C80        C2202   1.471   1_655  S
O83          C94   1.295       .  A
O83        Eu119   2.476   1_545  S
O84          C95   1.297       .  A
O84        Eu118   2.486   1_545  S
O85          C96   1.294       .  A
O85         Eu91   2.475   1_655  S
O86          C97   1.294       .  A
O86         Eu91   2.471       .  S
O87          C97   1.289       .  A
O87        Eu121   2.462   1_545  S
O88          C96   1.291       .  A
O88        Eu120   2.468   1_545  S
O89          C95   1.286       .  A
O89         Eu91   2.437       .  S
O90          C94   1.286       .  A
O90         Eu91   2.446       .  S
Eu91        O101   2.347       .  S
Eu91         O93   2.351   1_455  S
Eu91         O92   2.357       .  S
Eu91         O99   2.352   1_455  S
O92        Eu121   2.353   1_545  S
O92        Eu118   2.365   1_545  S
O93        Eu119   2.359   1_645  S
O93        Eu120   2.356   1_545  S
C94        C2746   1.498       .  S
C95        C2266   1.495       .  S
C96        C2106   1.498       .  S
C97        C2129   1.503       .  S
H98          O99   0.963       .  S
O99        Eu120   2.355   1_545  S
O99        Eu118   2.354   1_645  S
H100        O101   0.965       .  S
O101       Eu119   2.351   1_545  S
O101       Eu121   2.353   1_545  S
O102        C125   1.294       .  A
O102       Eu118   2.486       .  S
O103        C126   1.291       .  A
O103       Eu119   2.464       .  S
O104        C127   1.291       .  A
O104       Eu120   2.449       .  S
O105        C128   1.288       .  A
O105       Eu121   2.434       .  S
O106        C129   1.284       .  A
O106       Eu121   2.427       .  S
O107        C130   1.288       .  A
O107       Eu120   2.449   1_545  S
O108        C131   1.287       .  A
O108       Eu122   2.457   1_655  S
O109        C132   1.291       .  A
O109       Eu122   2.476       .  S
O110        C131   1.296       .  A
O110       Eu120   2.480       .  S
O111        C132   1.296       .  A
O111       Eu121   2.488       .  S
O112        C127   1.294       .  A
O112       Eu118   2.485   1_655  S
O113        C130   1.298       .  A
O113       Eu119   2.495   1_645  S
O114        C129   1.297       .  A
O114       Eu119   2.491       .  S
O115        C128   1.293       .  A
O115       Eu118   2.477       .  S
O116        C125   1.287       .  A
O116       Eu122   2.427       .  S
O117        C126   1.287       .  A
O117       Eu122   2.428       .  S
Eu118       O136   2.351       .  S
Eu118       O124   2.362   1_455  S
Eu119       O123   2.367       .  S
Eu119       O134   2.365   1_455  S
Eu120       O134   2.355       .  S
Eu120       O124   2.350       .  S
Eu121       O123   2.350       .  S
Eu121       O136   2.338       .  S
Eu122       O123   2.344       .  S
Eu122       O134   2.359   1_455  S
Eu122       O136   2.341       .  S
Eu122       O124   2.352   1_455  S
C125       C2330   1.499       .  S
C126       C2193   1.486       .  S
C127       C1905   1.499       .  S
C128       C1946   1.487       .  S
C129       C1969   1.489       .  S
C130       C2010   1.498       .  S
C131       C2065   1.511       .  S
C132       C2033   1.518       .  S
H133        O134   0.965       .  S
H135        O136   0.966       .  S
N137        C141   1.358       .  A
N137        C138   1.361       .  A
N137       C2138   1.445       .  S
C138        C139   1.383       .  A
C138       C2426   1.481       .  S
C139        C140   1.371       .  A
C139        H142   1.082       .  S
C140        C141   1.380       .  A
C140        H143   1.082       .  S
C141       C1873   1.478       .  S
N144        C148   1.356       .  A
N144        C145   1.359       .  A
N144       C2097   1.445       .  S
C145        C146   1.380       .  A
C145       C2394   1.474       .  S
C146        C147   1.370       .  A
C146        H149   1.082       .  S
C147        C148   1.381       .  A
C147        H150   1.082       .  S
C148       C1850   1.470       .  S
N151        C155   1.356       .  A
N151        C152   1.363       .  A
N151       C2074   1.444       .  S
C152        C153   1.385       .  A
C152       C1818   1.488       .  S
C153        C154   1.370       .  A
C153        H156   1.082       .  S
C154        C155   1.380       .  A
C154        H157   1.082       .  S
C155       C2458   1.477       .  S
N158        C162   1.357       .  A
N158        C159   1.361       .  A
N158       C2042   1.446       .  S
C159        C160   1.382       .  A
C159       C2362   1.477       .  S
C160        C161   1.370       .  A
C160        H163   1.082       .  S
C161        C162   1.380       .  A
C161        H164   1.082       .  S
C162       C1786   1.474       .  S
N165        C169   1.364       .  A
N165        C166   1.363   1_565  A
N165       C1745   1.449       .  S
C166        C167   1.382       .  A
C166       C2001   1.484       .  S
C167        C168   1.366       .  A
C167        H170   1.082       .  S
C168        C169   1.382   1_545  A
C168        H171   1.082       .  S
C169       C1722   1.481       .  S
O172        C183   1.289       .  A
O172       Eu208   2.465       .  S
O173        C184   1.291       .  A
O173       Eu207   2.462       .  S
O174        C185   1.289       .  A
O174       Eu180   2.448       .  S
O175        C186   1.287       .  A
O175       Eu180   2.453       .  S
O176        C186   1.291       .  A
O176       Eu210   2.451       .  S
O177        C185   1.292       .  A
O177       Eu209   2.473       .  S
O178        C184   1.289       .  A
O178       Eu180   2.435       .  S
O179        C183   1.292       .  A
O179       Eu180   2.456   1_545  S
Eu180       O190   2.346   1_565  S
Eu180       O182   2.345   1_565  S
Eu180       O181   2.350       .  S
Eu180       O188   2.353       .  S
O181       Eu210   2.338       .  S
O181       Eu207   2.361       .  S
O182       Eu208   2.357       .  S
O182       Eu209   2.349   1_545  S
C183       C1882   1.507       .  S
C184       C1777   1.479       .  S
C185       C1626   1.487       .  S
C186       C1690   1.496       .  S
H187        O188   0.963       .  S
O188       Eu209   2.346       .  S
O188       Eu207   2.366       .  S
H189        O190   0.966       .  S
O190       Eu208   2.359       .  S
O190       Eu210   2.358   1_545  S
O191        C214   1.297       .  A
O191       Eu207   2.495       .  S
O192        C215   1.291       .  A
O192       Eu208   2.464       .  S
O193        C216   1.284       .  A
O193       Eu209   2.432       .  S
O194        C217   1.291       .  A
O194       Eu210   2.462       .  S
O195        C218   1.283       .  A
O195       Eu210   2.432   1_545  S
O196        C219   1.289       .  A
O196       Eu209   2.437   1_545  S
O197        C220   1.287       .  A
O197       Eu211   2.456       .  S
O198        C221   1.289       .  A
O198       Eu211   2.445       .  S
O199        C220   1.294       .  A
O199       Eu209   2.472       .  S
O200        C221   1.289       .  A
O200       Eu210   2.456       .  S
O201        C216   1.295       .  A
O201       Eu207   2.474       .  S
O202        C219   1.296       .  A
O202       Eu208   2.490       .  S
O203        C218   1.299       .  A
O203       Eu208   2.502       .  S
O204        C217   1.293       .  A
O204       Eu207   2.473       .  S
O205        C214   1.285       .  A
O205       Eu211   2.435       .  S
O206        C215   1.287       .  A
O206       Eu211   2.426   1_545  S
Eu207       O225   2.352       .  S
Eu207       O213   2.354       .  S
Eu208       O212   2.351       .  S
Eu208       O223   2.364       .  S
Eu209       O223   2.354   1_565  S
Eu209       O213   2.353       .  S
Eu210       O212   2.343   1_565  S
Eu210       O225   2.349       .  S
Eu211       O212   2.341   1_565  S
Eu211       O223   2.347   1_565  S
Eu211       O225   2.350       .  S
Eu211       O213   2.342       .  S
C214       C1809   1.492       .  S
C215       C1841   1.489       .  S
C216       C1521   1.489       .  S
C217       C1585   1.478       .  S
C218       C1562   1.501       .  S
C219       C1489   1.491       .  S
C220       C1754   1.508       .  S
C221       C1649   1.487       .  S
H222        O223   0.965       .  S
H224        O225   0.970       .  S
N226        C230   1.358       .  A
N226        C227   1.354       .  A
N226       C1681   1.439       .  S
C227        C228   1.381       .  A
C227       C1466   1.480       .  S
C228        C229   1.376       .  A
C228        H231   1.082       .  S
C229        C230   1.385       .  A
C229        H232   1.082       .  S
C230       C1937   1.483       .  S
N233        C237   1.364       .  A
N233        C234   1.365       .  A
N233       C1658   1.445       .  S
C234        C235   1.383       .  A
C234       C1914   1.487       .  S
C235        C236   1.369       .  A
C235        H238   1.082       .  S
C236        C237   1.379       .  A
C236        H239   1.082       .  S
C237       C1425   1.483       .  S
N240        C244   1.363       .  A
N240        C241   1.358       .  A
N240       C1617   1.451       .  S
C241        C242   1.379       .  A
C241       C1393   1.470       .  S
C242        C243   1.365       .  A
C242        H245   1.082       .  S
C243        C244   1.383       .  A
C243        H246   1.082       .  S
C244       C1978   1.477       .  S
O247        C258   1.294       .  A
O247       Eu283   2.476   1_554  S
O248        C259   1.292       .  A
O248       Eu282   2.472   1_554  S
O249        C260   1.295       .  A
O249       Eu255   2.480   1_545  S
O250        C261   1.292       .  A
O250       Eu255   2.482       .  S
O251        C261   1.295       .  A
O251       Eu285   2.483   1_554  S
O252        C260   1.290       .  A
O252       Eu284   2.462   1_554  S
O253        C259   1.285       .  A
O253       Eu255   2.412       .  S
O254        C258   1.286       .  A
O254       Eu255   2.438       .  S
Eu255       O265   2.356       .  S
Eu255       O257   2.340   1_565  S
Eu255       O256   2.345       .  S
Eu255       O263   2.361   1_565  S
O256       Eu285   2.343   1_554  S
O256       Eu282   2.357   1_554  S
O257       Eu283   2.354   1_544  S
O257       Eu284   2.347   1_554  S
C258       C1713   1.485       .  S
C259       C1402   1.485       .  S
C260       C1361   1.504       .  S
C261       C1329   1.514       .  S
H262        O263   0.971       .  S
O263       Eu284   2.344   1_554  S
O263       Eu282   2.365   1_544  S
H264        O265   0.967       .  S
O265       Eu283   2.362   1_554  S
O265       Eu285   2.355   1_554  S
O266        C289   1.295       .  A
O266       Eu282   2.488       .  S
O267        C290   1.291       .  A
O267       Eu283   2.469       .  S
O268        C291   1.289       .  A
O268       Eu284   2.439       .  S
O269        C292   1.286       .  A
O269       Eu285   2.434   1_554  S
O270        C293   1.286       .  A
O270       Eu285   2.441       .  S
O271        C294   1.282       .  A
O271       Eu284   2.424       .  S
O272        C295   1.293       .  A
O272       Eu286   2.481   1_545  S
O273        C296   1.288       .  A
O273       Eu286   2.457       .  S
O274        C295   1.292       .  A
O274       Eu284   2.460       .  S
O275        C296   1.295       .  A
O275       Eu285   2.476       .  S
O276        C291   1.292       .  A
O276       Eu282   2.477   1_545  S
O277        C294   1.294       .  A
O277       Eu283   2.469   1_545  S
O278        C293   1.294       .  A
O278       Eu283   2.470       .  S
O279        C292   1.295   1_556  A
O279       Eu282   2.479       .  S
O280        C289   1.290       .  A
O280       Eu286   2.450       .  S
O281        C290   1.291       .  A
O281       Eu286   2.448       .  S
Eu282       O300   2.360       .  S
Eu282       O288   2.353   1_565  S
Eu283       O287   2.356       .  S
Eu283       O298   2.361   1_565  S
Eu284       O298   2.348       .  S
Eu284       O288   2.342       .  S
Eu285       O287   2.349       .  S
Eu285       O300   2.360       .  S
Eu286       O287   2.351       .  S
Eu286       O298   2.348   1_565  S
Eu286       O300   2.362       .  S
Eu286       O288   2.344   1_565  S
C289       C1457   1.495       .  S
C290       C1434   1.498       .  S
C291       C1233   1.504       .  S
C292       C1169   1.482       .  S
C293       C1210   1.491       .  S
C294       C1137   1.490   1_556  S
C295       C1265   1.503       .  S
C296       C1297   1.502       .  S
H297        O298   0.968       .  S
H299        O300   0.964       .  S
N301        C305   1.363       .  A
N301        C302   1.361       .  A
N301       C1370   1.447       .  S
C302        C303   1.381       .  A
C302       C1105   1.480       .  S
C303        C304   1.369       .  A
C303        H306   1.082       .  S
C304        C305   1.381       .  A
C304        H307   1.082       .  S
C305       C1498   1.481       .  S
N308        C312   1.360       .  A
N308        C309   1.355       .  A
N308       C1338   1.450       .  S
C309        C310   1.380       .  A
C309       C1530   1.467       .  S
C310        C311   1.366       .  A
C310        H313   1.082       .  S
C311        C312   1.384       .  A
C311        H314   1.082       .  S
C312       C1082   1.472       .  S
N315        C319   1.365       .  A
N315        C316   1.361       .  A
N315       C1306   1.440       .  S
C316        C317   1.378       .  A
C316       C1041   1.487       .  S
C317        C318   1.370       .  A
C317        H320   1.082       .  S
C318        C319   1.385       .  A
C318        H321   1.082       .  S
C319       C1594   1.494       .  S
N322        C326   1.357       .  A
N322        C323   1.361       .  A
N322       C1274   1.446       .  S
C323        C324   1.382       .  A
C323       C1009   1.476       .  S
C324        C325   1.365       .  A
C324        H327   1.082       .  S
C325        C326   1.380       .  A
C325        H328   1.082       .  S
C326       C1553   1.473       .  S
O329        C340   1.291       .  A
O329       Eu365   2.464   1_554  S
O330        C341   1.293       .  A
O330       Eu364   2.471   1_554  S
O331        C342   1.289       .  A
O331       Eu337   2.465   1_455  S
O332        C343   1.291       .  A
O332       Eu337   2.469       .  S
O333        C343   1.292       .  A
O333       Eu367   2.458   1_554  S
O334        C342   1.294       .  A
O334       Eu366   2.471   1_554  S
O335        C341   1.287       .  A
O335       Eu337   2.429       .  S
O336        C340   1.291       .  A
O336       Eu337   2.454       .  S
Eu337       O347   2.345       .  S
Eu337       O339   2.343   1_655  S
Eu337       O338   2.350       .  S
Eu337       O345   2.357   1_655  S
O338       Eu367   2.343   1_554  S
O338       Eu364   2.350   1_554  S
O339       Eu365   2.355   1_454  S
O339       Eu366   2.351   1_554  S
C340       C2705   1.489   1_655  S
C341       C2170   1.475       .  S
C342        C945   1.506       .  S
C343        C977   1.500       .  S
H344        O345   0.965       .  S
O345       Eu366   2.349   1_554  S
O345       Eu364   2.364   1_454  S
H346        O347   0.967       .  S
O347       Eu365   2.354   1_554  S
O347       Eu367   2.356   1_554  S
O348        C371   1.292       .  A
O348       Eu364   2.476   1_455  S
O349        C372   1.293       .  A
O349       Eu365   2.466       .  S
O350        C373   1.289       .  A
O350       Eu366   2.453       .  S
O351        C374   1.286       .  A
O351       Eu367   2.424       .  S
O352        C375   1.287       .  A
O352       Eu367   2.427   1_554  S
O353        C376   1.289       .  A
O353       Eu366   2.435       .  S
O354        C377   1.291       .  A
O354       Eu368   2.468   1_455  S
O355        C378   1.293       .  A
O355       Eu368   2.471       .  S
O356        C377   1.292       .  A
O356       Eu366   2.466       .  S
O357        C378   1.291       .  A
O357       Eu367   2.472       .  S
O358        C373   1.294       .  A
O358       Eu364   2.473   1_455  S
O359        C376   1.291       .  A
O359       Eu365   2.467   1_455  S
O360        C375   1.291   1_556  A
O360       Eu365   2.473       .  S
O361        C374   1.294       .  A
O361       Eu364   2.481       .  S
O362        C371   1.285       .  A
O362       Eu368   2.411   1_455  S
O363        C372   1.283       .  A
O363       Eu368   2.426       .  S
Eu364       O382   2.359       .  S
Eu364       O370   2.355   1_655  S
Eu365       O369   2.353       .  S
Eu365       O380   2.354   1_655  S
Eu366       O380   2.354       .  S
Eu366       O370   2.345       .  S
Eu367       O369   2.345       .  S
Eu367       O382   2.347       .  S
Eu368       O369   2.344       .  S
Eu368       O380   2.339   1_655  S
Eu368       O382   2.350       .  S
Eu368       O370   2.351   1_655  S
C371       C2298   1.489       .  S
C372       C2234   1.481       .  S
C373        C817   1.488       .  S
C374        C753   1.483       .  S
C375        C794   1.497       .  S
C376        C858   1.488       .  S
C377        C913   1.493       .  S
C378        C890   1.509       .  S
H379        O380   0.963       .  S
H381        O382   0.966       .  S
N383        C387   1.358       .  A
N383        C384   1.361       .  A
N383        C986   1.446       .  S
C384        C385   1.380       .  A
C384        C721   1.477       .  S
C385        C386   1.371       .  A
C385        H388   1.082       .  S
C386        C387   1.382       .  A
C386        H389   1.082       .  S
C387       C2522   1.476       .  S
N390        C394   1.366       .  A
N390        C391   1.362       .  A
N390        C954   1.453       .  S
C391        C392   1.379       .  A
C391       C2481   1.480       .  S
C392        C393   1.367       .  A
C392        H395   1.082       .  S
C393        C394   1.383       .  A
C393        H396   1.083       .  S
C394        C698   1.481       .  S
N397        C401   1.362       .  A
N397        C398   1.362       .  A
N397        C922   1.448       .  S
C398        C399   1.380       .  A
C398       C2554   1.479       .  S
C399        C400   1.371       .  A
C399        H402   1.082       .  S
C400        C401   1.382       .  A
C400        H403   1.082       .  S
C401        C666   1.481       .  S
N404        C408   1.359       .  A
N404        C405   1.360       .  A
N404        C881   1.442       .  S
C405        C406   1.383       .  A
C405        C625   1.480       .  S
C406        C407   1.372       .  A
C406        H409   1.082       .  S
C407        C408   1.381       .  A
C407        H410   1.082       .  S
C408       C2586   1.480       .  S
N411        C415   1.359       .  A
N411        C412   1.361       .  A
N411        C593   1.446       .  S
C412        C413   1.379       .  A
C412       C1242   1.477       .  S
C413        C414   1.369       .  A
C413        H416   1.082       .  S
C414        C415   1.382       .  A
C414        H417   1.082       .  S
C415        C849   1.477       .  S
O418        C429   1.295       .  A
O418       Eu454   2.480       .  S
O419        C430   1.296       .  A
O419       Eu453   2.477       .  S
O420        C431   1.296       .  A
O420       Eu426   2.483       .  S
O421        C432   1.292       .  A
O421       Eu426   2.473       .  S
O422        C432   1.293       .  A
O422       Eu456   2.471       .  S
O423        C431   1.285       .  A
O423       Eu455   2.435       .  S
O424        C430   1.284       .  A
O424       Eu426   2.427       .  S
O425        C429   1.286       .  A
O425       Eu426   2.445   1_554  S
Eu426       O436   2.348   1_556  S
Eu426       O428   2.345   1_556  S
Eu426       O427   2.352       .  S
Eu426       O434   2.347       .  S
O427       Eu456   2.354       .  S
O427       Eu453   2.361       .  S
O428       Eu454   2.349       .  S
O428       Eu455   2.349   1_554  S
C429       C1114   1.503       .  S
C430       C1018   1.485       .  S
C431        C602   1.493       .  S
C432        C506   1.501       .  S
H433        O434   0.965       .  S
O434       Eu455   2.342       .  S
O434       Eu453   2.353       .  S
H435        O436   0.966       .  S
O436       Eu454   2.359       .  S
O436       Eu456   2.344   1_554  S
O437        C460   1.294       .  A
O437       Eu453   2.475       .  S
O438        C461   1.294       .  A
O438       Eu454   2.472       .  S
O439        C462   1.289       .  A
O439       Eu455   2.441       .  S
O440        C463   1.288       .  A
O440       Eu456   2.440       .  S
O441        C464   1.295       .  A
O441       Eu456   2.472   1_554  S
O442        C465   1.287       .  A
O442       Eu455   2.444   1_554  S
O443        C466   1.294       .  A
O443       Eu457   2.476       .  S
O444        C467   1.289       .  A
O444       Eu457   2.458       .  S
O445        C466   1.286       .  A
O445       Eu455   2.450       .  S
O446        C467   1.290       .  A
O446       Eu456   2.448       .  S
O447        C462   1.295       .  A
O447       Eu453   2.488       .  S
O448        C465   1.294       .  A
O448       Eu454   2.472       .  S
O449        C464   1.287       .  A
O449       Eu454   2.455       .  S
O450        C463   1.298       .  A
O450       Eu453   2.490       .  S
O451        C460   1.291       .  A
O451       Eu457   2.465       .  S
O452        C461   1.286       .  A
O452       Eu457   2.433   1_554  S
Eu453       O471   2.364       .  S
Eu453       O459   2.356       .  S
Eu454       O458   2.356       .  S
Eu454       O469   2.367       .  S
Eu455       O469   2.342   1_556  S
Eu455       O459   2.346       .  S
Eu456       O458   2.345   1_556  S
Eu456       O471   2.369       .  S
Eu457       O458   2.356   1_556  S
Eu457       O469   2.363   1_556  S
Eu457       O471   2.356       .  S
Eu457       O459   2.340       .  S
C460       C1050   1.486       .  S
C461       C1073   1.475       .  S
C462        C657   1.494       .  S
C463        C634   1.487       .  S
C464        C730   1.507       .  S
C465        C689   1.482       .  S
C466        C529   1.507       .  S
C467        C561   1.493       .  S
H468        O469   0.966       .  S
H470        O471   0.966       .  S
N472        C476   1.358       .  A
N472        C473   1.360       .  A
N472        C570   1.442       .  S
C473        C474   1.383       .  A
C473        C762   1.479       .  S
C474        C475   1.372       .  A
C474        H477   1.082       .  S
C475        C476   1.379       .  A
C475        H478   1.082       .  S
C476       C1201   1.477       .  S
N479        C483   1.358       .  A
N479        C480   1.361       .  A
N479        C538   1.444       .  S
C480        C481   1.383       .  A
C480       C1178   1.484   1_556  S
C481        C482   1.370       .  A
C481        H484   1.082       .  S
C482        C483   1.383       .  A
C482        H485   1.082       .  S
C483        C826   1.483       .  S
N486        C490   1.356       .  A
N486        C487   1.358       .  A
N486        C497   1.449       .  S
C487        C488   1.381       .  A
C487        C785   1.471       .  S
C488        C489   1.369       .  A
C488        H491   1.082       .  S
C489        C490   1.380       .  A
C489        H492   1.082       .  S
C490       C1146   1.466       .  S
C493        C494   1.401       .  A
C493        C498   1.407       .  A
C493        H503   1.085       .  S
C494        C495   1.418   1_556  A
C494        C499   1.491       .  S
C495        C496   1.410       .  A
C495        C500   1.519       .  S
C496        C497   1.405       .  A
C496        H501   1.080       .  S
C497        C498   1.419   1_554  A
C498        C502   1.513       .  S
C499        C504   1.415   1_556  A
C499        C508   1.400       .  A
C500        F516   1.382       .  S
C500        F517   1.381       .  S
C500        F518   1.385       .  S
C502        F513   1.382       .  S
C502        F514   1.384       .  S
C502        F515   1.381       .  S
C504        C505   1.412       .  A
C504        C509   1.520       .  S
C505        C506   1.411   1_554  A
C505        H510   1.083       .  S
C506        C507   1.426       .  A
C507        C508   1.410       .  A
C507        C511   1.520       .  S
C508        H512   1.083       .  S
C509        F522   1.384       .  S
C509        F523   1.383   1_554  S
C509        F524   1.381       .  S
C511        F519   1.385       .  S
C511        F520   1.384       .  S
C511        F521   1.381       .  S
C525        C526   1.398       .  A
C525        C530   1.411       .  A
C525        H535   1.083   1_556  S
C526        C527   1.411       .  A
C526        C531   1.488       .  S
C527        C528   1.408       .  A
C527        C532   1.519       .  S
C528        C529   1.413       .  A
C528        H533   1.082       .  S
C529        C530   1.434       .  A
C530        C534   1.524   1_556  S
C531        C536   1.417       .  A
C531        C540   1.402   1_556  A
C532        F548   1.383   1_556  S
C532        F549   1.382       .  S
C532        F550   1.384       .  S
C534        F545   1.383   1_554  S
C534        F546   1.385       .  S
C534        F547   1.384       .  S
C536        C537   1.409       .  A
C536        C541   1.520       .  S
C537        C538   1.404       .  A
C537        H542   1.083       .  S
C538        C539   1.418   1_556  A
C539        C540   1.407       .  A
C539        C543   1.515       .  S
C540        H544   1.084       .  S
C541        F554   1.384       .  S
C541        F555   1.383       .  S
C541        F556   1.382       .  S
C543        F551   1.384       .  S
C543        F552   1.379       .  S
C543        F553   1.382       .  S
C557        C558   1.400   1_554  A
C557        C562   1.408       .  A
C557        H567   1.083       .  S
C558        C559   1.411       .  A
C558        C563   1.480       .  S
C559        C560   1.403       .  A
C559        C564   1.520       .  S
C560        C561   1.410       .  A
C560        H565   1.080       .  S
C561        C562   1.426   1_556  A
C562        C566   1.521       .  S
C563        C568   1.413       .  A
C563        C572   1.404   1_556  A
C564        F580   1.382   1_556  S
C564        F581   1.381       .  S
C564        F582   1.384       .  S
C566        F577   1.382   1_554  S
C566        F578   1.384       .  S
C566        F579   1.383       .  S
C568        C569   1.400       .  A
C568        C573   1.521       .  S
C569        C570   1.401       .  A
C569        H574   1.078       .  S
C570        C571   1.418   1_556  A
C571        C572   1.409       .  A
C571        C575   1.513       .  S
C572        H576   1.084       .  S
C573        F586   1.384       .  S
C573        F587   1.382       .  S
C573        F588   1.382       .  S
C575        F583   1.385       .  S
C575        F584   1.381       .  S
C575        F585   1.383       .  S
C589        C590   1.399       .  A
C589        C594   1.402       .  A
C589        H599   1.085       .  S
C590        C591   1.417   1_556  A
C590        C595   1.485       .  S
C591        C592   1.412   1_554  A
C591        C596   1.519       .  S
C592        C593   1.407       .  A
C592        H597   1.082   1_556  S
C593        C594   1.420       .  A
C594        C598   1.516       .  S
C595        C600   1.415   1_556  A
C595        C604   1.398       .  A
C596        F612   1.383       .  S
C596        F613   1.381       .  S
C596        F614   1.385       .  S
C598        F609   1.382       .  S
C598        F610   1.384       .  S
C598        F611   1.380       .  S
C600        C601   1.410       .  A
C600        C605   1.518       .  S
C601        C602   1.407   1_554  A
C601        H606   1.083       .  S
C602        C603   1.428       .  A
C603        C604   1.405       .  A
C603        C607   1.521       .  S
C604        H608   1.084       .  S
C605        F618   1.384       .  S
C605        F619   1.383   1_554  S
C605        F620   1.381       .  S
C607        F615   1.385       .  S
C607        F616   1.381       .  S
C607        F617   1.383       .  S
C621        C622   1.404       .  A
C621        C626   1.410       .  A
C621        H631   1.083       .  S
C622        C623   1.415       .  A
C622        C627   1.487       .  S
C623        C624   1.404       .  A
C623        C628   1.520       .  S
C624        C625   1.403       .  A
C624        H629   1.082       .  S
C625        C626   1.416       .  A
C626        C630   1.517       .  S
C627        C632   1.417       .  A
C627        C636   1.400       .  A
C628        F644   1.381       .  S
C628        F645   1.383       .  S
C628        F646   1.385       .  S
C630        F641   1.385       .  S
C630        F642   1.380       .  S
C630        F643   1.383       .  S
C632        C633   1.408       .  A
C632        C637   1.519       .  S
C633        C634   1.404       .  A
C633        H638   1.083       .  S
C634        C635   1.424       .  A
C635        C636   1.406       .  A
C635        C639   1.519       .  S
C636        H640   1.084       .  S
C637        F650   1.385       .  S
C637        F651   1.382       .  S
C637        F652   1.382       .  S
C639        F647   1.386       .  S
C639        F648   1.383       .  S
C639        F649   1.384       .  S
C653        C654   1.401       .  A
C653        C658   1.408       .  A
C653        H663   1.083       .  S
C654        C655   1.411       .  A
C654        C659   1.485       .  S
C655        C656   1.408       .  A
C655        C660   1.520       .  S
C656        C657   1.412       .  A
C656        H661   1.082       .  S
C657        C658   1.423       .  A
C658        C662   1.520       .  S
C659        C664   1.414       .  A
C659        C668   1.405       .  A
C660        F676   1.383       .  S
C660        F677   1.382       .  S
C660        F678   1.384       .  S
C662        F673   1.382       .  S
C662        F674   1.385       .  S
C662        F675   1.382       .  S
C664        C665   1.403       .  A
C664        C669   1.521       .  S
C665        C666   1.403       .  A
C665        H670   1.083       .  S
C666        C667   1.415       .  A
C667        C668   1.411       .  A
C667        C671   1.517       .  S
C668        H672   1.083       .  S
C669        F682   1.384       .  S
C669        F683   1.382       .  S
C669        F684   1.381       .  S
C671        F679   1.384       .  S
C671        F680   1.383       .  S
C671        F681   1.379       .  S
C685        C686   1.398       .  A
C685        C690   1.405       .  A
C685        H695   1.083       .  S
C686        C687   1.417       .  A
C686        C691   1.481       .  S
C687        C688   1.407       .  A
C687        C692   1.519       .  S
C688        C689   1.403       .  A
C688        H693   1.083       .  S
C689        C690   1.424       .  A
C690        C694   1.520       .  S
C691        C696   1.415       .  A
C691        C700   1.395       .  A
C692        F708   1.383       .  S
C692        F709   1.382       .  S
C692        F710   1.385       .  S
C694        F705   1.380       .  S
C694        F706   1.385       .  S
C694        F707   1.384       .  S
C696        C697   1.409       .  A
C696        C701   1.517       .  S
C697        C698   1.404       .  A
C697        H702   1.082       .  S
C698        C699   1.426       .  A
C699        C700   1.401       .  A
C699        C703   1.522       .  S
C700        H704   1.085       .  S
C701        F714   1.385       .  S
C701        F715   1.383       .  S
C701        F716   1.382       .  S
C703        F711   1.384       .  S
C703        F712   1.380       .  S
C703        F713   1.384       .  S
C717        C718   1.404       .  A
C717        C722   1.410       .  A
C717        H727   1.083       .  S
C718        C719   1.415       .  A
C718        C723   1.483       .  S
C719        C720   1.401       .  A
C719        C724   1.519       .  S
C720        C721   1.400       .  A
C720        H725   1.081       .  S
C721        C722   1.417       .  A
C722        C726   1.518       .  S
C723        C728   1.409       .  A
C723        C732   1.397       .  A
C724        F740   1.382       .  S
C724        F741   1.382       .  S
C724        F742   1.385       .  S
C726        F737   1.385       .  S
C726        F738   1.383       .  S
C726        F739   1.380       .  S
C728        C729   1.407       .  A
C728        C733   1.519       .  S
C729        C730   1.414       .  A
C729        H734   1.081       .  S
C730        C731   1.434       .  A
C731        C732   1.409       .  A
C731        C735   1.523       .  S
C732        H736   1.083       .  S
C733        F746   1.384       .  S
C733        F747   1.383       .  S
C733        F748   1.383       .  S
C735        F743   1.385       .  S
C735        F744   1.383       .  S
C735        F745   1.382       .  S
C749        C750   1.403       .  A
C749        C754   1.407       .  A
C749        H759   1.083       .  S
C750        C751   1.412   1_556  A
C750        C755   1.481       .  S
C751        C752   1.405       .  A
C751        C756   1.521       .  S
C752        C753   1.410   1_554  A
C752        H757   1.083       .  S
C753        C754   1.419       .  A
C754        C758   1.519       .  S
C755        C760   1.413   1_556  A
C755        C764   1.403       .  A
C756        F772   1.382       .  S
C756        F773   1.381       .  S
C756        F774   1.385       .  S
C758        F769   1.382       .  S
C758        F770   1.385       .  S
C758        F771   1.384       .  S
C760        C761   1.403   1_554  A
C760        C765   1.520       .  S
C761        C762   1.403       .  A
C761        H766   1.082   1_556  S
C762        C763   1.417       .  A
C763        C764   1.409       .  A
C763        C767   1.517       .  S
C764        H768   1.083       .  S
C765        F778   1.384       .  S
C765        F779   1.382       .  S
C765        F780   1.380       .  S
C767        F775   1.385       .  S
C767        F776   1.383       .  S
C767        F777   1.379       .  S
C781        C782   1.401       .  A
C781        C786   1.405       .  A
C781        H791   1.083       .  S
C782        C783   1.413   1_554  A
C782        C787   1.473       .  S
C783        C784   1.401       .  A
C783        C788   1.522       .  S
C784        C785   1.402   1_556  A
C784        H789   1.082       .  S
C785        C786   1.415       .  A
C786        C790   1.519       .  S
C787        C792   1.406   1_554  A
C787        C796   1.399       .  A
C788        F804   1.382       .  S
C788        F805   1.382       .  S
C788        F806   1.384       .  S
C790        F801   1.384       .  S
C790        F802   1.383       .  S
C790        F803   1.379       .  S
C792        C793   1.402       .  A
C792        C797   1.522       .  S
C793        C794   1.417   1_556  A
C793        H798   1.080       .  S
C794        C795   1.427       .  A
C795        C796   1.405       .  A
C795        C799   1.522       .  S
C796        H800   1.083       .  S
C797        F810   1.384       .  S
C797        F811   1.382   1_556  S
C797        F812   1.382       .  S
C799        F807   1.385       .  S
C799        F808   1.384       .  S
C799        F809   1.383   1_554  S
C813        C814   1.397       .  A
C813        C818   1.404       .  A
C813        H823   1.084       .  S
C814        C815   1.415   1_556  A
C814        C819   1.480       .  S
C815        C816   1.411       .  A
C815        C820   1.522       .  S
C816        C817   1.408   1_554  A
C816        H821   1.083       .  S
C817        C818   1.424       .  A
C818        C822   1.521       .  S
C819        C824   1.415   1_556  A
C819        C828   1.399       .  A
C820        F836   1.383   1_554  S
C820        F837   1.381       .  S
C820        F838   1.384       .  S
C822        F833   1.382       .  S
C822        F834   1.384       .  S
C822        F835   1.383       .  S
C824        C825   1.406       .  A
C824        C829   1.520       .  S
C825        C826   1.405   1_554  A
C825        H830   1.080       .  S
C826        C827   1.419       .  A
C827        C828   1.401       .  A
C827        C831   1.518       .  S
C828        H832   1.085       .  S
C829        F842   1.385       .  S
C829        F843   1.382       .  S
C829        F844   1.381       .  S
C831        F839   1.384       .  S
C831        F840   1.383       .  S
C831        F841   1.383       .  S
C845        C846   1.401       .  A
C845        C850   1.405       .  A
C845        H855   1.083       .  S
C846        C847   1.413   1_556  A
C846        C851   1.476       .  S
C847        C848   1.402       .  A
C847        C852   1.520       .  S
C848        C849   1.404   1_554  A
C848        H853   1.084       .  S
C849        C850   1.416       .  A
C850        C854   1.516       .  S
C851        C856   1.410   1_556  A
C851        C860   1.400       .  A
C852        F868   1.383       .  S
C852        F869   1.382       .  S
C852        F870   1.385       .  S
C854        F865   1.379       .  S
C854        F866   1.385       .  S
C854        F867   1.383       .  S
C856        C857   1.402       .  A
C856        C861   1.521       .  S
C857        C858   1.411   1_554  A
C857        H862   1.082       .  S
C858        C859   1.424       .  A
C859        C860   1.406       .  A
C859        C863   1.521       .  S
C860        H864   1.083       .  S
C861        F874   1.385       .  S
C861        F875   1.383   1_554  S
C861        F876   1.382       .  S
C863        F871   1.385       .  S
C863        F872   1.383       .  S
C863        F873   1.381       .  S
C877        C878   1.402       .  A
C877        C882   1.407       .  A
C877        H887   1.085       .  S
C878        C879   1.416       .  A
C878        C883   1.488       .  S
C879        C880   1.407       .  A
C879        C884   1.520       .  S
C880        C881   1.403       .  A
C880        H885   1.083       .  S
C881        C882   1.418       .  A
C882        C886   1.512       .  S
C883        C888   1.412       .  A
C883        C892   1.397       .  A
C884        F900   1.382       .  S
C884        F901   1.382       .  S
C884        F902   1.385       .  S
C886        F897   1.376       .  S
C886        F898   1.384       .  S
C886        F899   1.383       .  S
C888        C889   1.412       .  A
C888        C893   1.520       .  S
C889        C890   1.414       .  A
C889        H894   1.082       .  S
C890        C891   1.431       .  A
C891        C892   1.409       .  A
C891        C895   1.518       .  S
C892        H896   1.083       .  S
C893        F906   1.384       .  S
C893        F907   1.383       .  S
C893        F908   1.383       .  S
C895        F903   1.385       .  S
C895        F904   1.384       .  S
C895        F905   1.381       .  S
C909        C910   1.399       .  A
C909        C914   1.408       .  A
C909        H919   1.083       .  S
C910        C911   1.415       .  A
C910        C915   1.487       .  S
C911        C912   1.410       .  A
C911        C916   1.520       .  S
C912        C913   1.409       .  A
C912        H917   1.083       .  S
C913        C914   1.423       .  A
C914        C918   1.519       .  S
C915        C920   1.415       .  A
C915        C924   1.402       .  A
C916        F932   1.383       .  S
C916        F933   1.381       .  S
C916        F934   1.385       .  S
C918        F929   1.382       .  S
C918        F930   1.385       .  S
C918        F931   1.382       .  S
C920        C921   1.405       .  A
C920        C925   1.519       .  S
C921        C922   1.404       .  A
C921        H926   1.079       .  S
C922        C923   1.420       .  A
C923        C924   1.409       .  A
C923        C927   1.512       .  S
C924        H928   1.084       .  S
C925        F938   1.385       .  S
C925        F939   1.383       .  S
C925        F940   1.381       .  S
C927        F935   1.384       .  S
C927        F936   1.378       .  S
C927        F937   1.382       .  S
C941        C942   1.401       .  A
C941        C946   1.411       .  A
C941        H951   1.083       .  S
C942        C943   1.414       .  A
C942        C947   1.495       .  S
C943        C944   1.412       .  A
C943        C948   1.519       .  S
C944        C945   1.412       .  A
C944        H949   1.082       .  S
C945        C946   1.430       .  A
C946        C950   1.522       .  S
C947        C952   1.415       .  A
C947        C956   1.405       .  A
C948        F964   1.382       .  S
C948        F965   1.382       .  S
C948        F966   1.384       .  S
C950        F961   1.384       .  S
C950        F962   1.384       .  S
C950        F963   1.382       .  S
C952        C953   1.408       .  A
C952        C957   1.520       .  S
C953        C954   1.406       .  A
C953        H958   1.081       .  S
C954        C955   1.423       .  A
C955        C956   1.412       .  A
C955        C959   1.517       .  S
C956        H960   1.084       .  S
C957        F970   1.384       .  S
C957        F971   1.382       .  S
C957        F972   1.382       .  S
C959        F967   1.384       .  S
C959        F968   1.379       .  S
C959        F969   1.383       .  S
C973        C974   1.400       .  A
C973        C978   1.409       .  A
C973        H983   1.083       .  S
C974        C975   1.413       .  A
C974        C979   1.489       .  S
C975        C976   1.409       .  A
C975        C980   1.519       .  S
C976        C977   1.411       .  A
C976        H981   1.082       .  S
C977        C978   1.427       .  A
C978        C982   1.520       .  S
C979        C984   1.417       .  A
C979        C988   1.400       .  A
C980        F996   1.382       .  S
C980        F997   1.382       .  S
C980        F998   1.385       .  S
C982        F993   1.383       .  S
C982        F994   1.385       .  S
C982        F995   1.381       .  S
C984        C985   1.410       .  A
C984        C989   1.519       .  S
C985        C986   1.405       .  A
C985        H990   1.082       .  S
C986        C987   1.423       .  A
C987        C988   1.406       .  A
C987        C991   1.517       .  S
C988        H992   1.085       .  S
C989       F1002   1.384       .  S
C989       F1003   1.382       .  S
C989       F1004   1.382       .  S
C991        F999   1.384       .  S
C991       F1000   1.379       .  S
C991       F1001   1.383       .  S
C1005      C1006   1.398       .  A
C1005      C1010   1.399       .  A
C1005      H1015   1.085       .  S
C1006      C1007   1.415       .  A
C1006      C1011   1.476       .  S
C1007      C1008   1.404       .  A
C1007      C1012   1.519       .  S
C1008      C1009   1.402       .  A
C1008      H1013   1.079       .  S
C1009      C1010   1.421       .  A
C1010      C1014   1.520       .  S
C1011      C1016   1.415       .  A
C1011      C1020   1.394       .  A
C1012      F1028   1.382       .  S
C1012      F1029   1.382       .  S
C1012      F1030   1.385       .  S
C1014      F1025   1.383       .  S
C1014      F1026   1.383       .  S
C1014      F1027   1.381       .  S
C1016      C1017   1.405       .  A
C1016      C1021   1.518       .  S
C1017      C1018   1.405       .  A
C1017      H1022   1.083       .  S
C1018      C1019   1.428       .  A
C1019      C1020   1.400       .  A
C1019      C1023   1.520       .  S
C1020      H1024   1.084       .  S
C1021      F1034   1.385       .  S
C1021      F1035   1.382       .  S
C1021      F1036   1.382       .  S
C1023      F1031   1.385       .  S
C1023      F1032   1.380       .  S
C1023      F1033   1.383       .  S
C1037      C1038   1.401       .  A
C1037      C1042   1.409       .  A
C1037      H1047   1.083       .  S
C1038      C1039   1.418       .  A
C1038      C1043   1.491       .  S
C1039      C1040   1.410       .  A
C1039      C1044   1.519       .  S
C1040      C1041   1.403       .  A
C1040      H1045   1.081       .  S
C1041      C1042   1.421       .  A
C1042      C1046   1.522       .  S
C1043      C1048   1.418       .  A
C1043      C1052   1.402       .  A
C1044      F1060   1.382       .  S
C1044      F1061   1.382       .  S
C1044      F1062   1.385       .  S
C1046      F1057   1.385       .  S
C1046      F1058   1.382       .  S
C1046      F1059   1.381       .  S
C1048      C1049   1.410       .  A
C1048      C1053   1.519       .  S
C1049      C1050   1.405       .  A
C1049      H1054   1.083       .  S
C1050      C1051   1.419       .  A
C1051      C1052   1.409       .  A
C1051      C1055   1.517       .  S
C1052      H1056   1.083       .  S
C1053      F1066   1.385       .  S
C1053      F1067   1.382       .  S
C1053      F1068   1.382       .  S
C1055      F1063   1.383       .  S
C1055      F1064   1.381       .  S
C1055      F1065   1.385       .  S
C1069      C1070   1.396       .  A
C1069      C1074   1.401       .  A
C1069      H1079   1.083       .  S
C1070      C1071   1.416       .  A
C1070      C1075   1.473       .  S
C1071      C1072   1.405       .  A
C1071      C1076   1.521       .  S
C1072      C1073   1.403       .  A
C1072      H1077   1.082       .  S
C1073      C1074   1.421       .  A
C1074      C1078   1.520       .  S
C1075      C1080   1.414       .  A
C1075      C1084   1.395       .  A
C1076      F1092   1.382       .  S
C1076      F1093   1.382       .  S
C1076      F1094   1.385       .  S
C1078      F1089   1.382       .  S
C1078      F1090   1.385       .  S
C1078      F1091   1.384       .  S
C1080      C1081   1.407       .  A
C1080      C1085   1.518       .  S
C1081      C1082   1.404       .  A
C1081      H1086   1.082       .  S
C1082      C1083   1.421       .  A
C1083      C1084   1.395       .  A
C1083      C1087   1.521       .  S
C1084      H1088   1.085       .  S
C1085      F1098   1.384       .  S
C1085      F1099   1.383       .  S
C1085      F1100   1.382       .  S
C1087      F1095   1.384       .  S
C1087      F1096   1.380       .  S
C1087      F1097   1.383       .  S
C1101      C1102   1.400       .  A
C1101      C1106   1.404       .  A
C1101      H1111   1.085       .  S
C1102      C1103   1.417       .  A
C1102      C1107   1.486       .  S
C1103      C1104   1.411       .  A
C1103      C1108   1.519       .  S
C1104      C1105   1.403       .  A
C1104      H1109   1.083       .  S
C1105      C1106   1.419       .  A
C1106      C1110   1.519       .  S
C1107      C1112   1.414       .  A
C1107      C1116   1.394       .  A
C1108      F1124   1.383       .  S
C1108      F1125   1.382       .  S
C1108      F1126   1.384       .  S
C1110      F1121   1.384       .  S
C1110      F1122   1.383       .  S
C1110      F1123   1.383       .  S
C1112      C1113   1.411       .  A
C1112      C1117   1.519       .  S
C1113      C1114   1.412       .  A
C1113      H1118   1.082       .  S
C1114      C1115   1.433       .  A
C1115      C1116   1.405       .  A
C1115      C1119   1.523       .  S
C1116      H1120   1.083       .  S
C1117      F1130   1.385       .  S
C1117      F1131   1.383       .  S
C1117      F1132   1.381       .  S
C1119      F1127   1.383       .  S
C1119      F1128   1.383       .  S
C1119      F1129   1.385       .  S
C1133      C1134   1.394   1_556  A
C1133      C1138   1.400       .  A
C1133      H1143   1.083       .  S
C1134      C1135   1.415       .  A
C1134      C1139   1.478       .  S
C1135      C1136   1.405       .  A
C1135      C1140   1.519       .  S
C1136      C1137   1.408       .  A
C1136      H1141   1.082       .  S
C1137      C1138   1.430   1_554  A
C1138      C1142   1.523       .  S
C1139      C1144   1.418   1_554  A
C1139      C1148   1.400       .  A
C1140      F1156   1.382       .  S
C1140      F1157   1.383   1_554  S
C1140      F1158   1.385       .  S
C1142      F1153   1.383       .  S
C1142      F1154   1.385       .  S
C1142      F1155   1.380   1_556  S
C1144      C1145   1.404       .  A
C1144      C1149   1.521       .  S
C1145      C1146   1.399   1_556  A
C1145      H1150   1.083       .  S
C1146      C1147   1.416       .  A
C1147      C1148   1.401       .  A
C1147      C1151   1.519       .  S
C1148      H1152   1.085       .  S
C1149      F1162   1.384       .  S
C1149      F1163   1.381       .  S
C1149      F1164   1.383       .  S
C1151      F1159   1.384       .  S
C1151      F1160   1.382       .  S
C1151      F1161   1.383       .  S
C1165      C1166   1.399       .  A
C1165      C1170   1.406       .  A
C1165      H1175   1.083       .  S
C1166      C1167   1.416   1_554  A
C1166      C1171   1.480       .  S
C1167      C1168   1.405       .  A
C1167      C1172   1.519       .  S
C1168      C1169   1.401   1_556  A
C1168      H1173   1.081       .  S
C1169      C1170   1.424       .  A
C1170      C1174   1.519       .  S
C1171      C1176   1.415   1_554  A
C1171      C1180   1.396       .  A
C1172      F1188   1.382       .  S
C1172      F1189   1.381       .  S
C1172      F1190   1.382       .  S
C1174      F1185   1.381       .  S
C1174      F1186   1.385       .  S
C1174      F1187   1.383       .  S
C1176      C1177   1.410       .  A
C1176      C1181   1.519       .  S
C1177      C1178   1.406   1_556  A
C1177      H1182   1.082       .  S
C1178      C1179   1.423       .  A
C1179      C1180   1.399       .  A
C1179      C1183   1.520       .  S
C1180      H1184   1.085       .  S
C1181      F1194   1.384       .  S
C1181      F1195   1.383       .  S
C1181      F1196   1.382       .  S
C1183      F1191   1.384       .  S
C1183      F1192   1.380       .  S
C1183      F1193   1.383       .  S
C1197      C1198   1.399       .  A
C1197      C1202   1.403       .  A
C1197      H1207   1.085       .  S
C1198      C1199   1.416   1_556  A
C1198      C1203   1.482       .  S
C1199      C1200   1.407   1_554  A
C1199      C1204   1.520       .  S
C1200      C1201   1.403       .  A
C1200      H1205   1.083   1_556  S
C1201      C1202   1.419       .  A
C1202      C1206   1.519       .  S
C1203      C1208   1.416       .  A
C1203      C1212   1.396       .  A
C1204      F1220   1.382       .  S
C1204      F1221   1.383       .  S
C1204      F1222   1.384       .  S
C1206      F1217   1.383       .  S
C1206      F1218   1.384       .  S
C1206      F1219   1.380       .  S
C1208      C1209   1.408       .  A
C1208      C1213   1.520       .  S
C1209      C1210   1.408       .  A
C1209      H1214   1.083       .  S
C1210      C1211   1.426   1_556  A
C1211      C1212   1.404   1_554  A
C1211      C1215   1.520       .  S
C1212      H1216   1.083   1_556  S
C1213      F1226   1.385       .  S
C1213      F1227   1.382       .  S
C1213      F1228   1.383       .  S
C1215      F1223   1.385       .  S
C1215      F1224   1.383       .  S
C1215      F1225   1.383       .  S
C1229      C1230   1.401       .  A
C1229      C1234   1.411       .  A
C1229      H1239   1.083       .  S
C1230      C1231   1.409       .  A
C1230      C1235   1.483       .  S
C1231      C1232   1.403       .  A
C1231      C1236   1.522       .  S
C1232      C1233   1.415       .  A
C1232      H1237   1.081       .  S
C1233      C1234   1.428       .  A
C1234      C1238   1.521       .  S
C1235      C1240   1.414       .  A
C1235      C1244   1.402       .  A
C1236      F1252   1.381   1_556  S
C1236      F1253   1.382       .  S
C1236      F1254   1.385       .  S
C1238      F1249   1.383       .  S
C1238      F1250   1.385       .  S
C1238      F1251   1.383       .  S
C1240      C1241   1.404       .  A
C1240      C1245   1.519       .  S
C1241      C1242   1.402       .  A
C1241      H1246   1.081       .  S
C1242      C1243   1.416       .  A
C1243      C1244   1.406       .  A
C1243      C1247   1.518   1_556  S
C1244      H1248   1.083   1_556  S
C1245      F1258   1.385       .  S
C1245      F1259   1.381       .  S
C1245      F1260   1.382       .  S
C1247      F1255   1.385       .  S
C1247      F1256   1.383       .  S
C1247      F1257   1.380       .  S
C1261      C1262   1.404       .  A
C1261      C1266   1.412       .  A
C1261      H1271   1.083       .  S
C1262      C1263   1.417       .  A
C1262      C1267   1.500       .  S
C1263      C1264   1.411       .  A
C1263      C1268   1.520       .  S
C1264      C1265   1.411       .  A
C1264      H1269   1.083       .  S
C1265      C1266   1.424       .  A
C1266      C1270   1.520       .  S
C1267      C1272   1.419       .  A
C1267      C1276   1.406       .  A
C1268      F1284   1.381       .  S
C1268      F1285   1.382       .  S
C1268      F1286   1.386       .  S
C1270      F1281   1.384       .  S
C1270      F1282   1.385       .  S
C1270      F1283   1.382       .  S
C1272      C1273   1.411       .  A
C1272      C1277   1.519       .  S
C1273      C1274   1.402       .  A
C1273      H1278   1.082       .  S
C1274      C1275   1.418       .  A
C1275      C1276   1.411       .  A
C1275      C1279   1.516       .  S
C1276      H1280   1.084       .  S
C1277      F1290   1.385       .  S
C1277      F1291   1.381       .  S
C1277      F1292   1.383       .  S
C1279      F1287   1.384       .  S
C1279      F1288   1.380       .  S
C1279      F1289   1.383       .  S
C1293      C1294   1.396       .  A
C1293      C1298   1.407       .  A
C1293      H1303   1.083       .  S
C1294      C1295   1.412       .  A
C1294      C1299   1.486       .  S
C1295      C1296   1.411       .  A
C1295      C1300   1.519       .  S
C1296      C1297   1.413       .  A
C1296      H1301   1.082       .  S
C1297      C1298   1.431       .  A
C1298      C1302   1.522       .  S
C1299      C1304   1.416       .  A
C1299      C1308   1.406       .  A
C1300      F1316   1.382       .  S
C1300      F1317   1.383       .  S
C1300      F1318   1.384       .  S
C1302      F1313   1.385       .  S
C1302      F1314   1.383       .  S
C1302      F1315   1.382       .  S
C1304      C1305   1.402       .  A
C1304      C1309   1.521       .  S
C1305      C1306   1.403       .  A
C1305      H1310   1.083       .  S
C1306      C1307   1.412       .  A
C1307      C1308   1.412       .  A
C1307      C1311   1.512       .  S
C1308      H1312   1.083       .  S
C1309      F1322   1.385       .  S
C1309      F1323   1.382       .  S
C1309      F1324   1.382       .  S
C1311      F1319   1.381       .  S
C1311      F1320   1.382       .  S
C1311      F1321   1.384       .  S
C1325      C1326   1.400       .  A
C1325      C1330   1.414       .  A
C1325      H1335   1.083       .  S
C1326      C1327   1.412       .  A
C1326      C1331   1.494       .  S
C1327      C1328   1.413       .  A
C1327      C1332   1.520       .  S
C1328      C1329   1.414       .  A
C1328      H1333   1.081       .  S
C1329      C1330   1.431       .  A
C1330      C1334   1.522       .  S
C1331      C1336   1.417       .  A
C1331      C1340   1.404       .  A
C1332      F1348   1.383       .  S
C1332      F1349   1.381       .  S
C1332      F1350   1.384       .  S
C1334      F1345   1.379       .  S
C1334      F1346   1.386       .  S
C1334      F1347   1.383       .  S
C1336      C1337   1.409       .  A
C1336      C1341   1.519       .  S
C1337      C1338   1.405       .  A
C1337      H1342   1.081       .  S
C1338      C1339   1.420       .  A
C1339      C1340   1.410       .  A
C1339      C1343   1.513       .  S
C1340      H1344   1.084       .  S
C1341      F1354   1.385       .  S
C1341      F1355   1.382       .  S
C1341      F1356   1.381       .  S
C1343      F1351   1.384       .  S
C1343      F1352   1.378       .  S
C1343      F1353   1.383       .  S
C1357      C1358   1.400       .  A
C1357      C1362   1.411       .  A
C1357      H1367   1.083       .  S
C1358      C1359   1.414       .  A
C1358      C1363   1.492       .  S
C1359      C1360   1.411       .  A
C1359      C1364   1.519       .  S
C1360      C1361   1.411       .  A
C1360      H1365   1.082       .  S
C1361      C1362   1.429       .  A
C1362      C1366   1.521       .  S
C1363      C1368   1.417       .  A
C1363      C1372   1.402       .  A
C1364      F1380   1.383       .  S
C1364      F1381   1.382       .  S
C1364      F1382   1.385       .  S
C1366      F1377   1.380       .  S
C1366      F1378   1.385       .  S
C1366      F1379   1.383       .  S
C1368      C1369   1.410       .  A
C1368      C1373   1.519       .  S
C1369      C1370   1.404       .  A
C1369      H1374   1.082       .  S
C1370      C1371   1.419       .  A
C1371      C1372   1.408       .  A
C1371      C1375   1.514       .  S
C1372      H1376   1.084       .  S
C1373      F1386   1.385       .  S
C1373      F1387   1.382       .  S
C1373      F1388   1.382       .  S
C1375      F1383   1.384       .  S
C1375      F1384   1.381       .  S
C1375      F1385   1.383       .  S
C1389      C1390   1.401       .  A
C1389      C1394   1.403       .  A
C1389      H1399   1.083       .  S
C1390      C1391   1.412   1_565  A
C1390      C1395   1.469       .  S
C1391      C1392   1.401       .  A
C1391      C1396   1.522       .  S
C1392      C1393   1.403   1_545  A
C1392      H1397   1.084       .  S
C1393      C1394   1.413       .  A
C1394      C1398   1.516       .  S
C1395      C1400   1.405   1_565  A
C1395      C1404   1.402       .  A
C1396      F1412   1.382       .  S
C1396      F1413   1.381       .  S
C1396      F1414   1.384       .  S
C1398      F1409   1.380       .  S
C1398      F1410   1.385       .  S
C1398      F1411   1.383       .  S
C1400      C1401   1.397       .  A
C1400      C1405   1.522       .  S
C1401      C1402   1.414   1_545  A
C1401      H1406   1.082       .  S
C1402      C1403   1.421       .  A
C1403      C1404   1.406       .  A
C1403      C1407   1.520       .  S
C1404      H1408   1.083       .  S
C1405      F1418   1.385       .  S
C1405      F1419   1.382   1_545  S
C1405      F1420   1.381       .  S
C1407      F1415   1.385       .  S
C1407      F1416   1.383       .  S
C1407      F1417   1.383       .  S
C1421      C1422   1.400   1_565  A
C1421      C1426   1.407       .  A
C1421      H1431   1.083       .  S
C1422      C1423   1.416       .  A
C1422      C1427   1.487       .  S
C1423      C1424   1.408       .  A
C1423      C1428   1.519       .  S
C1424      C1425   1.404       .  A
C1424      H1429   1.083       .  S
C1425      C1426   1.419   1_545  A
C1426      C1430   1.517       .  S
C1427      C1432   1.411   1_545  A
C1427      C1436   1.403       .  A
C1428      F1444   1.382       .  S
C1428      F1445   1.382       .  S
C1428      F1446   1.385       .  S
C1430      F1441   1.381       .  S
C1430      F1442   1.386       .  S
C1430      F1443   1.382       .  S
C1432      C1433   1.404       .  A
C1432      C1437   1.520       .  S
C1433      C1434   1.411       .  A
C1433      H1438   1.082       .  S
C1434      C1435   1.427   1_565  A
C1435      C1436   1.412       .  A
C1435      C1439   1.522       .  S
C1436      H1440   1.083       .  S
C1437      F1450   1.385       .  S
C1437      F1451   1.382       .  S
C1437      F1452   1.382       .  S
C1439      F1447   1.385       .  S
C1439      F1448   1.384   1_545  S
C1439      F1449   1.383       .  S
C1453      C1454   1.400       .  A
C1453      C1458   1.407       .  A
C1453      H1463   1.083       .  S
C1454      C1455   1.414   1_565  A
C1454      C1459   1.488       .  S
C1455      C1456   1.410       .  A
C1455      C1460   1.519       .  S
C1456      C1457   1.411   1_545  A
C1456      H1461   1.083       .  S
C1457      C1458   1.421       .  A
C1458      C1462   1.516       .  S
C1459      C1464   1.419       .  A
C1459      C1468   1.402   1_565  A
C1460      F1476   1.382       .  S
C1460      F1477   1.382       .  S
C1460      F1478   1.385       .  S
C1462      F1473   1.383       .  S
C1462      F1474   1.385       .  S
C1462      F1475   1.382       .  S
C1464      C1465   1.409       .  A
C1464      C1469   1.520       .  S
C1465      C1466   1.402       .  A
C1465      H1470   1.082       .  S
C1466      C1467   1.417   1_565  A
C1467      C1468   1.404       .  A
C1467      C1471   1.518       .  S
C1468      H1472   1.084       .  S
C1469      F1482   1.385       .  S
C1469      F1483   1.382       .  S
C1469      F1484   1.382       .  S
C1471      F1479   1.384       .  S
C1471      F1480   1.382       .  S
C1471      F1481   1.382       .  S
C1485      C1486   1.400       .  A
C1485      C1490   1.407       .  A
C1485      H1495   1.083       .  S
C1486      C1487   1.410       .  A
C1486      C1491   1.480       .  S
C1487      C1488   1.407       .  A
C1487      C1492   1.521       .  S
C1488      C1489   1.413       .  A
C1488      H1493   1.083       .  S
C1489      C1490   1.422       .  A
C1490      C1494   1.519       .  S
C1491      C1496   1.413       .  A
C1491      C1500   1.402       .  A
C1492      F1508   1.383       .  S
C1492      F1509   1.382       .  S
C1492      F1510   1.384       .  S
C1494      F1505   1.385       .  S
C1494      F1506   1.383       .  S
C1494      F1507   1.382       .  S
C1496      C1497   1.402       .  A
C1496      C1501   1.521       .  S
C1497      C1498   1.405       .  A
C1497      H1502   1.083       .  S
C1498      C1499   1.418       .  A
C1499      C1500   1.409       .  A
C1499      C1503   1.517       .  S
C1500      H1504   1.083       .  S
C1501      F1514   1.384       .  S
C1501      F1515   1.383       .  S
C1501      F1516   1.381       .  S
C1503      F1511   1.385       .  S
C1503      F1512   1.383       .  S
C1503      F1513   1.377       .  S
C1517      C1518   1.394       .  A
C1517      C1522   1.401       .  A
C1517      H1527   1.084       .  S
C1518      C1519   1.412       .  A
C1518      C1523   1.474       .  S
C1519      C1520   1.406       .  A
C1519      C1524   1.519       .  S
C1520      C1521   1.408       .  A
C1520      H1525   1.082       .  S
C1521      C1522   1.429       .  A
C1522      C1526   1.522       .  S
C1523      C1528   1.415       .  A
C1523      C1532   1.401       .  A
C1524      F1540   1.383       .  S
C1524      F1541   1.381       .  S
C1524      F1542   1.384       .  S
C1526      F1537   1.384       .  S
C1526      F1538   1.381       .  S
C1526      F1539   1.380       .  S
C1528      C1529   1.404       .  A
C1528      C1533   1.518       .  S
C1529      C1530   1.400       .  A
C1529      H1534   1.083       .  S
C1530      C1531   1.413       .  A
C1531      C1532   1.399       .  A
C1531      C1535   1.519       .  S
C1532      H1536   1.085       .  S
C1533      F1546   1.385       .  S
C1533      F1547   1.382       .  S
C1533      F1548   1.382       .  S
C1535      F1543   1.384       .  S
C1535      F1544   1.384       .  S
C1535      F1545   1.382       .  S
C1549      C1550   1.400       .  A
C1549      C1554   1.401       .  A
C1549      H1559   1.084       .  S
C1550      C1551   1.418       .  A
C1550      C1555   1.481       .  S
C1551      C1552   1.407       .  A
C1551      C1556   1.518       .  S
C1552      C1553   1.401       .  A
C1552      H1557   1.081       .  S
C1553      C1554   1.415       .  A
C1554      C1558   1.518       .  S
C1555      C1560   1.415       .  A
C1555      C1564   1.391       .  A
C1556      F1572   1.382       .  S
C1556      F1573   1.381       .  S
C1556      F1574   1.385       .  S
C1558      F1569   1.381       .  S
C1558      F1570   1.384       .  S
C1558      F1571   1.383       .  S
C1560      C1561   1.412       .  A
C1560      C1565   1.520       .  S
C1561      C1562   1.410       .  A
C1561      H1566   1.082       .  S
C1562      C1563   1.435       .  A
C1563      C1564   1.403       .  A
C1563      C1567   1.522       .  S
C1564      H1568   1.083       .  S
C1565      F1578   1.384       .  S
C1565      F1579   1.383       .  S
C1565      F1580   1.382       .  S
C1567      F1575   1.385       .  S
C1567      F1576   1.381       .  S
C1567      F1577   1.383       .  S
C1581      C1582   1.406       .  A
C1581      C1586   1.410       .  A
C1581      H1591   1.083       .  S
C1582      C1583   1.420       .  A
C1582      C1587   1.496       .  S
C1583      C1584   1.407       .  A
C1583      C1588   1.520       .  S
C1584      C1585   1.401       .  A
C1584      H1589   1.084       .  S
C1585      C1586   1.419       .  A
C1586      C1590   1.518       .  S
C1587      C1592   1.417       .  A
C1587      C1596   1.405       .  A
C1588      F1604   1.381       .  S
C1588      F1605   1.383       .  S
C1588      F1606   1.385       .  S
C1590      F1601   1.383       .  S
C1590      F1602   1.383       .  S
C1590      F1603   1.382       .  S
C1592      C1593   1.408       .  A
C1592      C1597   1.520       .  S
C1593      C1594   1.407       .  A
C1593      H1598   1.083       .  S
C1594      C1595   1.420       .  A
C1595      C1596   1.412       .  A
C1595      C1599   1.515       .  S
C1596      H1600   1.083       .  S
C1597      F1610   1.385       .  S
C1597      F1611   1.381       .  S
C1597      F1612   1.383       .  S
C1599      F1607   1.377       .  S
C1599      F1608   1.383       .  S
C1599      F1609   1.385       .  S
C1613      C1614   1.399       .  A
C1613      C1618   1.405       .  A
C1613      H1623   1.085       .  S
C1614      C1615   1.414   1_565  A
C1614      C1619   1.483       .  S
C1615      C1616   1.409       .  A
C1615      C1620   1.518       .  S
C1616      C1617   1.407   1_545  A
C1616      H1621   1.081       .  S
C1617      C1618   1.423       .  A
C1618      C1622   1.515       .  S
C1619      C1624   1.418   1_565  A
C1619      C1628   1.402       .  A
C1620      F1636   1.383       .  S
C1620      F1637   1.382       .  S
C1620      F1638   1.384       .  S
C1622      F1633   1.382       .  S
C1622      F1634   1.385       .  S
C1622      F1635   1.378       .  S
C1624      C1625   1.406       .  A
C1624      C1629   1.518       .  S
C1625      C1626   1.407   1_545  A
C1625      H1630   1.085       .  S
C1626      C1627   1.420       .  A
C1627      C1628   1.405       .  A
C1627      C1631   1.516       .  S
C1628      H1632   1.084       .  S
C1629      F1642   1.383       .  S
C1629      F1643   1.384       .  S
C1629      F1644   1.381       .  S
C1631      F1639   1.385       .  S
C1631      F1640   1.384       .  S
C1631      F1641   1.379       .  S
C1645      C1646   1.399   1_565  A
C1645      C1650   1.403       .  A
C1645      H1655   1.084       .  S
C1646      C1647   1.415       .  A
C1646      C1651   1.481       .  S
C1647      C1648   1.406       .  A
C1647      C1652   1.519       .  S
C1648      C1649   1.408   1_545  A
C1648      H1653   1.083       .  S
C1649      C1650   1.421       .  A
C1650      C1654   1.517       .  S
C1651      C1656   1.415       .  A
C1651      C1660   1.400   1_545  A
C1652      F1668   1.382       .  S
C1652      F1669   1.381       .  S
C1652      F1670   1.386       .  S
C1654      F1665   1.381       .  S
C1654      F1666   1.385       .  S
C1654      F1667   1.379       .  S
C1656      C1657   1.407       .  A
C1656      C1661   1.521       .  S
C1657      C1658   1.406       .  A
C1657      H1662   1.080       .  S
C1658      C1659   1.420   1_545  A
C1659      C1660   1.406       .  A
C1659      C1663   1.513       .  S
C1660      H1664   1.085       .  S
C1661      F1674   1.384       .  S
C1661      F1675   1.382       .  S
C1661      F1676   1.382       .  S
C1663      F1671   1.384       .  S
C1663      F1672   1.380       .  S
C1663      F1673   1.383       .  S
C1677      C1678   1.400       .  A
C1677      C1682   1.403       .  A
C1677      H1687   1.084       .  S
C1678      C1679   1.415   1_565  A
C1678      C1683   1.479       .  S
C1679      C1680   1.406       .  A
C1679      C1684   1.519       .  S
C1680      C1681   1.403   1_545  A
C1680      H1685   1.081       .  S
C1681      C1682   1.415       .  A
C1682      C1686   1.515       .  S
C1683      C1688   1.411       .  A
C1683      C1692   1.398       .  A
C1684      F1700   1.382       .  S
C1684      F1701   1.382       .  S
C1684      F1702   1.385       .  S
C1686      F1697   1.385       .  S
C1686      F1698   1.379       .  S
C1686      F1699   1.382       .  S
C1688      C1689   1.404       .  A
C1688      C1693   1.521       .  S
C1689      C1690   1.412       .  A
C1689      H1694   1.082       .  S
C1690      C1691   1.429   1_565  A
C1691      C1692   1.407   1_545  A
C1691      C1695   1.522       .  S
C1692      H1696   1.083   1_565  S
C1693      F1706   1.385       .  S
C1693      F1707   1.382       .  S
C1693      F1708   1.382       .  S
C1695      F1703   1.385       .  S
C1695      F1704   1.383   1_545  S
C1695      F1705   1.383       .  S
C1709      C1710   1.397       .  A
C1709      C1714   1.404       .  A
C1709      H1719   1.083       .  S
C1710      C1711   1.416   1_565  A
C1710      C1715   1.481       .  S
C1711      C1712   1.407       .  A
C1711      C1716   1.519       .  S
C1712      C1713   1.405   1_545  A
C1712      H1717   1.083       .  S
C1713      C1714   1.424       .  A
C1714      C1718   1.520       .  S
C1715      C1720   1.416   1_565  A
C1715      C1724   1.396       .  A
C1716      F1732   1.382       .  S
C1716      F1733   1.382       .  S
C1716      F1734   1.385       .  S
C1718      F1729   1.381       .  S
C1718      F1730   1.385       .  S
C1718      F1731   1.383       .  S
C1720      C1721   1.410       .  A
C1720      C1725   1.518       .  S
C1721      C1722   1.405   1_545  A
C1721      H1726   1.082       .  S
C1722      C1723   1.422       .  A
C1723      C1724   1.399       .  A
C1723      C1727   1.520       .  S
C1724      H1728   1.085       .  S
C1725      F1738   1.384       .  S
C1725      F1739   1.382       .  S
C1725      F1740   1.382       .  S
C1727      F1735   1.384       .  S
C1727      F1736   1.380       .  S
C1727      F1737   1.383       .  S
C1741      C1742   1.402       .  A
C1741      C1746   1.410       .  A
C1741      H1751   1.084       .  S
C1742      C1743   1.417   1_565  A
C1742      C1747   1.491       .  S
C1743      C1744   1.410       .  A
C1743      C1748   1.520       .  S
C1744      C1745   1.404   1_545  A
C1744      H1749   1.082       .  S
C1745      C1746   1.421       .  A
C1746      C1750   1.516       .  S
C1747      C1752   1.413       .  A
C1747      C1756   1.398       .  A
C1748      F1764   1.382       .  S
C1748      F1765   1.382       .  S
C1748      F1766   1.384       .  S
C1750      F1761   1.381       .  S
C1750      F1762   1.384       .  S
C1750      F1763   1.382       .  S
C1752      C1753   1.409       .  A
C1752      C1757   1.519   1_565  S
C1753      C1754   1.414       .  A
C1753      H1758   1.082   1_565  S
C1754      C1755   1.433       .  A
C1755      C1756   1.410       .  A
C1755      C1759   1.523       .  S
C1756      H1760   1.083       .  S
C1757      F1770   1.385       .  S
C1757      F1771   1.382   1_545  S
C1757      F1772   1.382       .  S
C1759      F1767   1.385       .  S
C1759      F1768   1.383       .  S
C1759      F1769   1.383   1_565  S
C1773      C1774   1.404       .  A
C1773      C1778   1.407       .  A
C1773      H1783   1.083       .  S
C1774      C1775   1.412       .  A
C1774      C1779   1.480       .  S
C1775      C1776   1.402       .  A
C1775      C1780   1.520       .  S
C1776      C1777   1.407       .  A
C1776      H1781   1.083       .  S
C1777      C1778   1.419       .  A
C1778      C1782   1.521       .  S
C1779      C1784   1.417       .  A
C1779      C1788   1.400       .  A
C1780      F1796   1.381       .  S
C1780      F1797   1.381       .  S
C1780      F1798   1.385       .  S
C1782      F1793   1.384       .  S
C1782      F1794   1.385       .  S
C1782      F1795   1.382       .  S
C1784      C1785   1.408       .  A
C1784      C1789   1.520       .  S
C1785      C1786   1.401       .  A
C1785      H1790   1.082       .  S
C1786      C1787   1.416       .  A
C1787      C1788   1.402       .  A
C1787      C1791   1.520       .  S
C1788      H1792   1.084       .  S
C1789      F1802   1.384       .  S
C1789      F1803   1.382       .  S
C1789      F1804   1.382       .  S
C1791      F1799   1.384       .  S
C1791      F1800   1.382       .  S
C1791      F1801   1.382       .  S
C1805      C1806   1.394       .  A
C1805      C1810   1.402       .  A
C1805      H1815   1.084       .  S
C1806      C1807   1.417       .  A
C1806      C1811   1.483       .  S
C1807      C1808   1.413       .  A
C1807      C1812   1.520       .  S
C1808      C1809   1.407       .  A
C1808      H1813   1.083       .  S
C1809      C1810   1.428       .  A
C1810      C1814   1.521       .  S
C1811      C1816   1.415       .  A
C1811      C1820   1.399       .  A
C1812      F1828   1.383       .  S
C1812      F1829   1.381       .  S
C1812      F1830   1.385       .  S
C1814      F1825   1.383       .  S
C1814      F1826   1.385       .  S
C1814      F1827   1.382       .  S
C1816      C1817   1.408       .  A
C1816      C1821   1.518       .  S
C1817      C1818   1.406       .  A
C1817      H1822   1.078       .  S
C1818      C1819   1.422       .  A
C1819      C1820   1.401       .  A
C1819      C1823   1.519       .  S
C1820      H1824   1.085       .  S
C1821      F1834   1.385       .  S
C1821      F1835   1.383       .  S
C1821      F1836   1.380       .  S
C1823      F1831   1.384       .  S
C1823      F1832   1.382       .  S
C1823      F1833   1.383       .  S
C1837      C1838   1.401       .  A
C1837      C1842   1.406       .  A
C1837      H1847   1.083       .  S
C1838      C1839   1.408       .  A
C1838      C1843   1.473       .  S
C1839      C1840   1.400       .  A
C1839      C1844   1.521       .  S
C1840      C1841   1.413       .  A
C1840      H1845   1.082       .  S
C1841      C1842   1.424       .  A
C1842      C1846   1.521       .  S
C1843      C1848   1.414       .  A
C1843      C1852   1.402       .  A
C1844      F1860   1.382       .  S
C1844      F1861   1.380       .  S
C1844      F1862   1.385       .  S
C1846      F1857   1.382       .  S
C1846      F1858   1.385       .  S
C1846      F1859   1.384       .  S
C1848      C1849   1.402       .  A
C1848      C1853   1.521       .  S
C1849      C1850   1.402       .  A
C1849      H1854   1.084       .  S
C1850      C1851   1.412       .  A
C1851      C1852   1.403       .  A
C1851      C1855   1.516       .  S
C1852      H1856   1.083       .  S
C1853      F1866   1.385       .  S
C1853      F1867   1.382       .  S
C1853      F1868   1.381       .  S
C1855      F1863   1.385       .  S
C1855      F1864   1.383       .  S
C1855      F1865   1.381       .  S
C1869      C1870   1.403       .  A
C1869      C1874   1.407       .  A
C1869      H1879   1.083       .  S
C1870      C1871   1.417       .  A
C1870      C1875   1.488       .  S
C1871      C1872   1.406       .  A
C1871      C1876   1.519       .  S
C1872      C1873   1.402       .  A
C1872      H1877   1.083       .  S
C1873      C1874   1.414       .  A
C1874      C1878   1.517       .  S
C1875      C1880   1.411       .  A
C1875      C1884   1.400       .  A
C1876      F1892   1.382       .  S
C1876      F1893   1.382       .  S
C1876      F1894   1.385       .  S
C1878      F1889   1.381       .  S
C1878      F1890   1.384       .  S
C1878      F1891   1.383       .  S
C1880      C1881   1.407       .  A
C1880      C1885   1.521       .  S
C1881      C1882   1.415       .  A
C1881      H1886   1.081       .  S
C1882      C1883   1.431       .  A
C1883      C1884   1.410       .  A
C1883      C1887   1.523       .  S
C1884      H1888   1.083       .  S
C1885      F1898   1.384       .  S
C1885      F1899   1.382       .  S
C1885      F1900   1.382       .  S
C1887      F1895   1.385       .  S
C1887      F1896   1.384       .  S
C1887      F1897   1.384       .  S
C1901      C1902   1.400       .  A
C1901      C1906   1.409       .  A
C1901      H1911   1.083       .  S
C1902      C1903   1.411   1_545  A
C1902      C1907   1.487       .  S
C1903      C1904   1.408       .  A
C1903      C1908   1.519       .  S
C1904      C1905   1.412       .  A
C1904      H1909   1.083       .  S
C1905      C1906   1.425   1_565  A
C1906      C1910   1.518       .  S
C1907      C1912   1.414   1_545  A
C1907      C1916   1.404       .  A
C1908      F1924   1.383   1_565  S
C1908      F1925   1.382       .  S
C1908      F1926   1.384       .  S
C1910      F1921   1.383       .  S
C1910      F1922   1.385       .  S
C1910      F1923   1.382       .  S
C1912      C1913   1.402       .  A
C1912      C1917   1.521       .  S
C1913      C1914   1.405   1_565  A
C1913      H1918   1.083       .  S
C1914      C1915   1.419       .  A
C1915      C1916   1.412       .  A
C1915      C1919   1.517       .  S
C1916      H1920   1.083       .  S
C1917      F1930   1.385       .  S
C1917      F1931   1.382       .  S
C1917      F1932   1.382       .  S
C1919      F1927   1.385       .  S
C1919      F1928   1.383       .  S
C1919      F1929   1.377       .  S
C1933      C1934   1.399       .  A
C1933      C1938   1.402       .  A
C1933      H1943   1.085       .  S
C1934      C1935   1.416       .  A
C1934      C1939   1.483       .  S
C1935      C1936   1.409       .  A
C1935      C1940   1.519   1_565  S
C1936      C1937   1.405       .  A
C1936      H1941   1.082   1_565  S
C1937      C1938   1.421       .  A
C1938      C1942   1.519       .  S
C1939      C1944   1.413       .  A
C1939      C1948   1.403       .  A
C1940      F1956   1.382       .  S
C1940      F1957   1.382       .  S
C1940      F1958   1.385       .  S
C1942      F1953   1.381       .  S
C1942      F1954   1.384       .  S
C1942      F1955   1.383       .  S
C1944      C1945   1.404       .  A
C1944      C1949   1.522       .  S
C1945      C1946   1.410       .  A
C1945      H1950   1.083       .  S
C1946      C1947   1.420   1_565  A
C1947      C1948   1.409   1_545  A
C1947      C1951   1.520       .  S
C1948      H1952   1.083   1_565  S
C1949      F1962   1.385       .  S
C1949      F1963   1.382       .  S
C1949      F1964   1.382       .  S
C1951      F1959   1.385       .  S
C1951      F1960   1.382       .  S
C1951      F1961   1.383       .  S
C1965      C1966   1.393       .  A
C1965      C1970   1.400       .  A
C1965      H1975   1.084       .  S
C1966      C1967   1.415   1_565  A
C1966      C1971   1.477       .  S
C1967      C1968   1.411       .  A
C1967      C1972   1.518       .  S
C1968      C1969   1.407   1_545  A
C1968      H1973   1.083       .  S
C1969      C1970   1.427       .  A
C1970      C1974   1.520       .  S
C1971      C1976   1.416   1_565  A
C1971      C1980   1.398       .  A
C1972      F1988   1.382   1_545  S
C1972      F1989   1.381       .  S
C1972      F1990   1.384       .  S
C1974      F1985   1.383       .  S
C1974      F1986   1.385       .  S
C1974      F1987   1.383       .  S
C1976      C1977   1.407   1_545  A
C1976      C1981   1.518       .  S
C1977      C1978   1.404       .  A
C1977      H1982   1.082   1_565  S
C1978      C1979   1.421       .  A
C1979      C1980   1.398       .  A
C1979      C1983   1.521       .  S
C1980      H1984   1.085       .  S
C1981      F1994   1.385       .  S
C1981      F1995   1.382       .  S
C1981      F1996   1.381       .  S
C1983      F1991   1.384       .  S
C1983      F1992   1.380       .  S
C1983      F1993   1.383       .  S
C1997      C1998   1.399       .  A
C1997      C2002   1.403       .  A
C1997      H2007   1.085       .  S
C1998      C1999   1.418   1_545  A
C1998      C2003   1.488       .  S
C1999      C2000   1.412       .  A
C1999      C2004   1.517       .  S
C2000      C2001   1.403   1_565  A
C2000      H2005   1.083       .  S
C2001      C2002   1.419       .  A
C2002      C2006   1.518       .  S
C2003      C2008   1.417   1_545  A
C2003      C2012   1.396       .  A
C2004      F2020   1.383       .  S
C2004      F2021   1.382       .  S
C2004      F2022   1.384       .  S
C2006      F2017   1.383       .  S
C2006      F2018   1.384       .  S
C2006      F2019   1.384       .  S
C2008      C2009   1.412       .  A
C2008      C2013   1.519       .  S
C2009      C2010   1.408   1_565  A
C2009      H2014   1.082       .  S
C2010      C2011   1.429       .  A
C2011      C2012   1.407       .  A
C2011      C2015   1.520       .  S
C2012      H2016   1.083       .  S
C2013      F2026   1.385       .  S
C2013      F2027   1.383   1_565  S
C2013      F2028   1.382       .  S
C2015      F2023   1.385       .  S
C2015      F2024   1.383       .  S
C2015      F2025   1.382       .  S
C2029      C2030   1.399       .  A
C2029      C2034   1.413       .  A
C2029      H2039   1.083       .  S
C2030      C2031   1.416       .  A
C2030      C2035   1.498       .  S
C2031      C2032   1.414       .  A
C2031      C2036   1.521       .  S
C2032      C2033   1.414       .  A
C2032      H2037   1.080       .  S
C2033      C2034   1.433       .  A
C2034      C2038   1.521       .  S
C2035      C2040   1.419       .  A
C2035      C2044   1.403       .  A
C2036      F2052   1.382       .  S
C2036      F2053   1.381       .  S
C2036      F2054   1.384       .  S
C2038      F2049   1.382       .  S
C2038      F2050   1.385       .  S
C2038      F2051   1.383       .  S
C2040      C2041   1.415       .  A
C2040      C2045   1.519       .  S
C2041      C2042   1.405       .  A
C2041      H2046   1.080       .  S
C2042      C2043   1.420       .  A
C2043      C2044   1.409       .  A
C2043      C2047   1.518       .  S
C2044      H2048   1.085       .  S
C2045      F2058   1.384       .  S
C2045      F2059   1.382       .  S
C2045      F2060   1.382       .  S
C2047      F2055   1.383       .  S
C2047      F2056   1.380       .  S
C2047      F2057   1.383       .  S
C2061      C2062   1.399       .  A
C2061      C2066   1.412       .  A
C2061      H2071   1.083       .  S
C2062      C2063   1.414       .  A
C2062      C2067   1.493       .  S
C2063      C2064   1.409       .  A
C2063      C2068   1.519       .  S
C2064      C2065   1.412       .  A
C2064      H2069   1.082       .  S
C2065      C2066   1.434       .  A
C2066      C2070   1.522       .  S
C2067      C2072   1.419       .  A
C2067      C2076   1.403       .  A
C2068      F2084   1.382       .  S
C2068      F2085   1.383       .  S
C2068      F2086   1.385       .  S
C2070      F2081   1.383       .  S
C2070      F2082   1.385       .  S
C2070      F2083   1.380       .  S
C2072      C2073   1.410       .  A
C2072      C2077   1.519       .  S
C2073      C2074   1.403       .  A
C2073      H2078   1.082       .  S
C2074      C2075   1.414       .  A
C2075      C2076   1.408       .  A
C2075      C2079   1.515       .  S
C2076      H2080   1.083       .  S
C2077      F2090   1.385       .  S
C2077      F2091   1.382       .  S
C2077      F2092   1.382       .  S
C2079      F2087   1.384       .  S
C2079      F2088   1.382       .  S
C2079      F2089   1.380       .  S
C2093      C2094   1.401       .  A
C2093      C2098   1.405       .  A
C2093      H2103   1.085       .  S
C2094      C2095   1.417       .  A
C2094      C2099   1.488       .  S
C2095      C2096   1.410       .  A
C2095      C2100   1.520       .  S
C2096      C2097   1.406       .  A
C2096      H2101   1.081       .  S
C2097      C2098   1.418       .  A
C2098      C2102   1.517       .  S
C2099      C2104   1.414       .  A
C2099      C2108   1.399       .  A
C2100      F2116   1.383       .  S
C2100      F2117   1.381       .  S
C2100      F2118   1.385       .  S
C2102      F2113   1.382       .  S
C2102      F2114   1.384       .  S
C2102      F2115   1.381       .  S
C2104      C2105   1.411       .  A
C2104      C2109   1.520       .  S
C2105      C2106   1.409       .  A
C2105      H2110   1.079       .  S
C2106      C2107   1.426       .  A
C2107      C2108   1.407       .  A
C2107      C2111   1.519       .  S
C2108      H2112   1.083       .  S
C2109      F2122   1.384       .  S
C2109      F2123   1.383       .  S
C2109      F2124   1.381       .  S
C2111      F2119   1.385       .  S
C2111      F2120   1.382       .  S
C2111      F2121   1.382       .  S
C2125      C2126   1.399       .  A
C2125      C2130   1.409       .  A
C2125      H2135   1.083       .  S
C2126      C2127   1.412       .  A
C2126      C2131   1.488       .  S
C2127      C2128   1.409       .  A
C2127      C2132   1.519       .  S
C2128      C2129   1.412       .  A
C2128      H2133   1.081       .  S
C2129      C2130   1.430       .  A
C2130      C2134   1.522       .  S
C2131      C2136   1.416       .  A
C2131      C2140   1.402       .  A
C2132      F2148   1.382       .  S
C2132      F2149   1.381       .  S
C2132      F2150   1.384       .  S
C2134      F2145   1.383       .  S
C2134      F2146   1.385       .  S
C2134      F2147   1.382       .  S
C2136      C2137   1.408       .  A
C2136      C2141   1.520       .  S
C2137      C2138   1.403       .  A
C2137      H2142   1.081       .  S
C2138      C2139   1.420       .  A
C2139      C2140   1.407       .  A
C2139      C2143   1.516       .  S
C2140      H2144   1.085       .  S
C2141      F2154   1.384       .  S
C2141      F2155   1.382       .  S
C2141      F2156   1.382       .  S
C2143      F2151   1.384       .  S
C2143      F2152   1.378       .  S
C2143      F2153   1.383       .  S
C2157      C2158   1.403       .  A
C2157      C2162   1.407       .  A
C2157      H2167   1.085       .  S
C2158      C2159   1.412   1_655  A
C2158      C2163   1.474       .  S
C2159      C2160   1.398       .  A
C2159      C2164   1.522       .  S
C2160      C2161   1.405   1_455  A
C2160      H2165   1.084       .  S
C2161      C2162   1.417       .  A
C2162      C2166   1.517       .  S
C2163      C2168   1.411   1_655  A
C2163      C2172   1.401       .  A
C2164      F2180   1.382       .  S
C2164      F2181   1.381       .  S
C2164      F2182   1.385       .  S
C2166      F2177   1.380       .  S
C2166      F2178   1.384       .  S
C2166      F2179   1.381       .  S
C2168      C2169   1.404       .  A
C2168      C2173   1.521       .  S
C2169      C2170   1.407   1_455  A
C2169      H2174   1.083       .  S
C2170      C2171   1.417       .  A
C2171      C2172   1.404       .  A
C2171      C2175   1.520       .  S
C2172      H2176   1.083       .  S
C2173      F2186   1.385       .  S
C2173      F2187   1.382       .  S
C2173      F2188   1.381       .  S
C2175      F2183   1.385       .  S
C2175      F2184   1.384       .  S
C2175      F2185   1.382       .  S
C2189      C2190   1.401   1_655  A
C2189      C2194   1.405       .  A
C2189      H2199   1.083       .  S
C2190      C2191   1.409       .  A
C2190      C2195   1.475       .  S
C2191      C2192   1.401       .  A
C2191      C2196   1.520       .  S
C2192      C2193   1.411       .  A
C2192      H2197   1.083       .  S
C2193      C2194   1.422   1_455  A
C2194      C2198   1.520       .  S
C2195      C2200   1.414   1_455  A
C2195      C2204   1.401       .  A
C2196      F2212   1.382       .  S
C2196      F2213   1.383       .  S
C2196      F2214   1.385       .  S
C2198      F2209   1.385       .  S
C2198      F2210   1.383       .  S
C2198      F2211   1.383       .  S
C2200      C2201   1.400       .  A
C2200      C2205   1.520       .  S
C2201      C2202   1.401   1_655  A
C2201      H2206   1.083       .  S
C2202      C2203   1.415       .  A
C2203      C2204   1.404       .  A
C2203      C2207   1.517       .  S
C2204      H2208   1.083       .  S
C2205      F2218   1.384       .  S
C2205      F2219   1.382       .  S
C2205      F2220   1.383       .  S
C2207      F2215   1.385       .  S
C2207      F2216   1.383       .  S
C2207      F2217   1.382       .  S
C2221      C2222   1.395   1_455  A
C2221      C2226   1.399       .  A
C2221      H2231   1.085       .  S
C2222      C2223   1.415       .  A
C2222      C2227   1.476       .  S
C2223      C2224   1.407       .  A
C2223      C2228   1.519       .  S
C2224      C2225   1.404       .  A
C2224      H2229   1.080       .  S
C2225      C2226   1.423   1_655  A
C2226      C2230   1.520       .  S
C2227      C2232   1.415       .  A
C2227      C2236   1.396   1_655  A
C2228      F2244   1.382       .  S
C2228      F2245   1.382       .  S
C2228      F2246   1.384       .  S
C2230      F2241   1.384       .  S
C2230      F2242   1.384       .  S
C2230      F2243   1.379       .  S
C2232      C2233   1.405       .  A
C2232      C2237   1.519       .  S
C2233      C2234   1.405       .  A
C2233      H2238   1.083       .  S
C2234      C2235   1.426   1_655  A
C2235      C2236   1.401       .  A
C2235      C2239   1.522       .  S
C2236      H2240   1.083       .  S
C2237      F2250   1.385       .  S
C2237      F2251   1.382       .  S
C2237      F2252   1.382       .  S
C2239      F2247   1.383       .  S
C2239      F2248   1.383       .  S
C2239      F2249   1.385       .  S
C2253      C2254   1.404       .  A
C2253      C2258   1.409       .  A
C2253      H2263   1.083       .  S
C2254      C2255   1.414   1_655  A
C2254      C2259   1.485   1_655  S
C2255      C2256   1.406       .  A
C2255      C2260   1.520       .  S
C2256      C2257   1.403   1_455  A
C2256      H2261   1.081       .  S
C2257      C2258   1.415       .  A
C2258      C2262   1.517       .  S
C2259      C2264   1.416   1_455  A
C2259      C2268   1.397       .  A
C2260      F2276   1.382       .  S
C2260      F2277   1.382       .  S
C2260      F2278   1.384       .  S
C2262      F2273   1.384       .  S
C2262      F2274   1.381       .  S
C2262      F2275   1.382       .  S
C2264      C2265   1.409       .  A
C2264      C2269   1.519       .  S
C2265      C2266   1.407   1_655  A
C2265      H2270   1.081       .  S
C2266      C2267   1.428       .  A
C2267      C2268   1.406       .  A
C2267      C2271   1.520       .  S
C2268      H2272   1.084       .  S
C2269      F2282   1.384       .  S
C2269      F2283   1.382       .  S
C2269      F2284   1.382   1_655  S
C2271      F2279   1.383       .  S
C2271      F2280   1.384       .  S
C2271      F2281   1.385       .  S
C2285      C2286   1.400       .  A
C2285      C2290   1.406       .  A
C2285      H2295   1.083       .  S
C2286      C2287   1.412   1_455  A
C2286      C2291   1.473       .  S
C2287      C2288   1.400       .  A
C2287      C2292   1.522       .  S
C2288      C2289   1.403   1_655  A
C2288      H2293   1.081       .  S
C2289      C2290   1.417       .  A
C2290      C2294   1.518       .  S
C2291      C2296   1.407       .  A
C2291      C2300   1.399       .  A
C2292      F2308   1.382       .  S
C2292      F2309   1.382       .  S
C2292      F2310   1.384       .  S
C2294      F2305   1.379       .  S
C2294      F2306   1.385       .  S
C2294      F2307   1.383       .  S
C2296      C2297   1.401   1_455  A
C2296      C2301   1.521   1_455  S
C2297      C2298   1.415   1_655  A
C2297      H2302   1.082       .  S
C2298      C2299   1.423       .  A
C2299      C2300   1.405       .  A
C2299      C2303   1.520       .  S
C2300      H2304   1.083       .  S
C2301      F2314   1.385       .  S
C2301      F2315   1.383   1_655  S
C2301      F2316   1.382       .  S
C2303      F2311   1.383       .  S
C2303      F2312   1.382       .  S
C2303      F2313   1.384       .  S
C2317      C2318   1.399   1_655  A
C2317      C2322   1.402       .  A
C2317      H2327   1.083       .  S
C2318      C2319   1.415       .  A
C2318      C2323   1.477       .  S
C2319      C2320   1.406       .  A
C2319      C2324   1.520       .  S
C2320      C2321   1.403       .  A
C2320      H2325   1.083       .  S
C2321      C2322   1.413   1_455  A
C2322      C2326   1.516       .  S
C2323      C2328   1.408       .  A
C2323      C2332   1.400       .  A
C2324      F2340   1.382       .  S
C2324      F2341   1.382       .  S
C2324      F2342   1.385       .  S
C2326      F2337   1.379       .  S
C2326      F2338   1.384       .  S
C2326      F2339   1.383       .  S
C2328      C2329   1.403       .  A
C2328      C2333   1.522   1_455  S
C2329      C2330   1.415       .  A
C2329      H2334   1.079   1_455  S
C2330      C2331   1.425       .  A
C2331      C2332   1.407       .  A
C2331      C2335   1.519       .  S
C2332      H2336   1.083       .  S
C2333      F2346   1.385       .  S
C2333      F2347   1.382       .  S
C2333      F2348   1.382   1_655  S
C2335      F2343   1.385       .  S
C2335      F2344   1.383       .  S
C2335      F2345   1.383       .  S
C2349      C2350   1.396       .  A
C2349      C2354   1.405       .  A
C2349      H2359   1.084       .  S
C2350      C2351   1.416       .  A
C2350      C2355   1.483       .  S
C2351      C2352   1.409       .  A
C2351      C2356   1.521       .  S
C2352      C2353   1.407       .  A
C2352      H2357   1.082       .  S
C2353      C2354   1.430       .  A
C2354      C2358   1.522       .  S
C2355      C2360   1.416       .  A
C2355      C2364   1.401       .  A
C2356      F2372   1.382       .  S
C2356      F2373   1.381       .  S
C2356      F2374   1.385       .  S
C2358      F2369   1.382       .  S
C2358      F2370   1.386       .  S
C2358      F2371   1.383       .  S
C2360      C2361   1.408       .  A
C2360      C2365   1.520       .  S
C2361      C2362   1.402       .  A
C2361      H2366   1.079       .  S
C2362      C2363   1.418       .  A
C2363      C2364   1.406       .  A
C2363      C2367   1.520       .  S
C2364      H2368   1.083       .  S
C2365      F2378   1.384       .  S
C2365      F2379   1.382       .  S
C2365      F2380   1.381       .  S
C2367      F2375   1.385       .  S
C2367      F2376   1.382       .  S
C2367      F2377   1.382       .  S
C2381      C2382   1.402       .  A
C2381      C2386   1.410       .  A
C2381      H2391   1.083       .  S
C2382      C2383   1.407       .  A
C2382      C2387   1.479       .  S
C2383      C2384   1.401       .  A
C2383      C2388   1.522       .  S
C2384      C2385   1.416       .  A
C2384      H2389   1.081       .  S
C2385      C2386   1.426       .  A
C2386      C2390   1.521       .  S
C2387      C2392   1.414       .  A
C2387      C2396   1.400       .  A
C2388      F2404   1.382       .  S
C2388      F2405   1.382       .  S
C2388      F2406   1.385       .  S
C2390      F2401   1.383       .  S
C2390      F2402   1.385       .  S
C2390      F2403   1.384       .  S
C2392      C2393   1.405       .  A
C2392      C2397   1.521       .  S
C2393      C2394   1.404       .  A
C2393      H2398   1.083       .  S
C2394      C2395   1.420       .  A
C2395      C2396   1.403       .  A
C2395      C2399   1.519       .  S
C2396      H2400   1.085       .  S
C2397      F2410   1.385       .  S
C2397      F2411   1.382       .  S
C2397      F2412   1.382       .  S
C2399      F2407   1.384       .  S
C2399      F2408   1.378       .  S
C2399      F2409   1.383       .  S
C2413      C2414   1.395       .  A
C2413      C2418   1.406       .  A
C2413      H2423   1.083       .  S
C2414      C2415   1.415       .  A
C2414      C2419   1.482       .  S
C2415      C2416   1.409       .  A
C2415      C2420   1.520       .  S
C2416      C2417   1.407       .  A
C2416      H2421   1.081       .  S
C2417      C2418   1.431       .  A
C2418      C2422   1.520       .  S
C2419      C2424   1.415       .  A
C2419      C2428   1.397       .  A
C2420      F2436   1.382       .  S
C2420      F2437   1.382       .  S
C2420      F2438   1.383       .  S
C2422      F2433   1.385       .  S
C2422      F2434   1.381       .  S
C2422      F2435   1.382       .  S
C2424      C2425   1.408       .  A
C2424      C2429   1.517       .  S
C2425      C2426   1.405       .  A
C2425      H2430   1.082       .  S
C2426      C2427   1.422       .  A
C2427      C2428   1.400       .  A
C2427      C2431   1.520       .  S
C2428      H2432   1.085       .  S
C2429      F2442   1.385       .  S
C2429      F2443   1.382       .  S
C2429      F2444   1.382       .  S
C2431      F2439   1.384       .  S
C2431      F2440   1.379       .  S
C2431      F2441   1.383       .  S
C2445      C2446   1.399       .  A
C2445      C2450   1.406       .  A
C2445      H2455   1.083       .  S
C2446      C2447   1.416       .  A
C2446      C2451   1.478       .  S
C2447      C2448   1.404       .  A
C2447      C2452   1.520       .  S
C2448      C2449   1.402       .  A
C2448      H2453   1.083       .  S
C2449      C2450   1.423       .  A
C2450      C2454   1.521       .  S
C2451      C2456   1.416       .  A
C2451      C2460   1.397       .  A
C2452      F2468   1.382       .  S
C2452      F2469   1.381       .  S
C2452      F2470   1.385       .  S
C2454      F2465   1.382       .  S
C2454      F2466   1.385       .  S
C2454      F2467   1.384       .  S
C2456      C2457   1.410       .  A
C2456      C2461   1.518       .  S
C2457      C2458   1.403       .  A
C2457      H2462   1.081       .  S
C2458      C2459   1.417       .  A
C2459      C2460   1.398       .  A
C2459      C2463   1.516       .  S
C2460      H2464   1.085       .  S
C2461      F2474   1.385       .  S
C2461      F2475   1.383       .  S
C2461      F2476   1.381       .  S
C2463      F2471   1.385       .  S
C2463      F2472   1.383       .  S
C2463      F2473   1.382       .  S
C2477      C2478   1.403       .  A
C2477      C2482   1.408       .  A
C2477      H2487   1.083       .  S
C2478      C2479   1.416       .  A
C2478      C2483   1.484       .  S
C2479      C2480   1.406       .  A
C2479      C2484   1.520       .  S
C2480      C2481   1.403       .  A
C2480      H2485   1.083       .  S
C2481      C2482   1.416       .  A
C2482      C2486   1.518       .  S
C2483      C2488   1.410       .  A
C2483      C2492   1.401       .  A
C2484      F2500   1.382       .  S
C2484      F2501   1.382       .  S
C2484      F2502   1.384       .  S
C2486      F2497   1.380       .  S
C2486      F2498   1.384       .  S
C2486      F2499   1.383       .  S
C2488      C2489   1.405       .  A
C2488      C2493   1.521       .  S
C2489      C2490   1.416       .  A
C2489      H2494   1.081       .  S
C2490      C2491   1.429       .  A
C2491      C2492   1.410       .  A
C2491      C2495   1.522       .  S
C2492      H2496   1.083       .  S
C2493      F2506   1.385       .  S
C2493      F2507   1.382       .  S
C2493      F2508   1.382       .  S
C2495      F2503   1.385       .  S
C2495      F2504   1.384       .  S
C2495      F2505   1.383       .  S
C2509      C2510   1.400       .  A
C2509      C2514   1.407       .  A
C2509      H2519   1.084       .  S
C2510      C2511   1.410       .  A
C2510      C2515   1.479       .  S
C2511      C2512   1.405       .  A
C2511      C2516   1.521       .  S
C2512      C2513   1.413       .  A
C2512      H2517   1.082       .  S
C2513      C2514   1.424       .  A
C2514      C2518   1.520       .  S
C2515      C2520   1.415       .  A
C2515      C2524   1.402       .  A
C2516      F2532   1.383       .  S
C2516      F2533   1.381       .  S
C2516      F2534   1.385       .  S
C2518      F2529   1.382       .  S
C2518      F2530   1.385       .  S
C2518      F2531   1.384       .  S
C2520      C2521   1.404       .  A
C2520      C2525   1.521       .  S
C2521      C2522   1.403       .  A
C2521      H2526   1.084       .  S
C2522      C2523   1.414       .  A
C2523      C2524   1.406       .  A
C2523      C2527   1.516       .  S
C2524      H2528   1.083       .  S
C2525      F2538   1.385       .  S
C2525      F2539   1.382       .  S
C2525      F2540   1.380       .  S
C2527      F2535   1.385       .  S
C2527      F2536   1.383       .  S
C2527      F2537   1.379       .  S
C2541      C2542   1.402       .  A
C2541      C2546   1.406       .  A
C2541      H2551   1.083       .  S
C2542      C2543   1.413       .  A
C2542      C2547   1.484       .  S
C2543      C2544   1.405       .  A
C2543      C2548   1.518       .  S
C2544      C2545   1.406       .  A
C2544      H2549   1.083       .  S
C2545      C2546   1.420       .  A
C2546      C2550   1.519       .  S
C2547      C2552   1.417       .  A
C2547      C2556   1.399       .  A
C2548      F2564   1.382       .  S
C2548      F2565   1.382       .  S
C2548      F2566   1.384       .  S
C2550      F2561   1.383       .  S
C2550      F2562   1.385       .  S
C2550      F2563   1.383       .  S
C2552      C2553   1.409       .  A
C2552      C2557   1.521       .  S
C2553      C2554   1.405       .  A
C2553      H2558   1.082       .  S
C2554      C2555   1.420       .  A
C2555      C2556   1.403       .  A
C2555      C2559   1.520       .  S
C2556      H2560   1.085       .  S
C2557      F2570   1.384       .  S
C2557      F2571   1.382       .  S
C2557      F2572   1.383       .  S
C2559      F2567   1.382       .  S
C2559      F2568   1.384       .  S
C2559      F2569   1.379       .  S
C2573      C2574   1.401       .  A
C2573      C2578   1.408       .  A
C2573      H2583   1.083       .  S
C2574      C2575   1.418       .  A
C2574      C2579   1.485       .  S
C2575      C2576   1.406       .  A
C2575      C2580   1.520       .  S
C2576      C2577   1.402       .  A
C2576      H2581   1.083       .  S
C2577      C2578   1.421       .  A
C2578      C2582   1.519       .  S
C2579      C2584   1.416       .  A
C2579      C2588   1.399       .  A
C2580      F2596   1.382       .  S
C2580      F2597   1.382       .  S
C2580      F2598   1.385       .  S
C2582      F2593   1.383       .  S
C2582      F2594   1.385       .  S
C2582      F2595   1.383       .  S
C2584      C2585   1.409       .  A
C2584      C2589   1.518       .  S
C2585      C2586   1.403       .  A
C2585      H2590   1.081       .  S
C2586      C2587   1.422       .  A
C2587      C2588   1.404       .  A
C2587      C2591   1.521       .  S
C2588      H2592   1.085       .  S
C2589      F2602   1.384       .  S
C2589      F2603   1.382       .  S
C2589      F2604   1.382       .  S
C2591      F2599   1.384       .  S
C2591      F2600   1.380       .  S
C2591      F2601   1.383       .  S
C2605      C2606   1.403       .  A
C2605      C2610   1.409       .  A
C2605      H2615   1.085       .  S
C2606      C2607   1.413   1_455  A
C2606      C2611   1.482       .  S
C2607      C2608   1.402       .  A
C2607      C2612   1.522       .  S
C2608      C2609   1.404   1_655  A
C2608      H2613   1.077       .  S
C2609      C2610   1.421       .  A
C2610      C2614   1.515       .  S
C2611      C2616   1.414   1_455  A
C2611      C2620   1.399       .  A
C2612      F2628   1.382       .  S
C2612      F2629   1.381       .  S
C2612      F2630   1.385       .  S
C2614      F2625   1.383       .  S
C2614      F2626   1.384       .  S
C2614      F2627   1.381       .  S
C2616      C2617   1.406       .  A
C2616      C2621   1.519       .  S
C2617      C2618   1.408   1_655  A
C2617      H2622   1.083       .  S
C2618      C2619   1.422       .  A
C2619      C2620   1.405       .  A
C2619      C2623   1.520       .  S
C2620      H2624   1.083       .  S
C2621      F2634   1.385       .  S
C2621      F2635   1.382       .  S
C2621      F2636   1.381       .  S
C2623      F2631   1.383       .  S
C2623      F2632   1.382       .  S
C2623      F2633   1.385       .  S
C2637      C2638   1.405   1_455  A
C2637      C2642   1.409       .  A
C2637      H2647   1.085       .  S
C2638      C2639   1.417       .  A
C2638      C2643   1.492       .  S
C2639      C2640   1.408       .  A
C2639      C2644   1.520       .  S
C2640      C2641   1.403       .  A
C2640      H2645   1.083       .  S
C2641      C2642   1.417   1_655  A
C2642      C2646   1.513       .  S
C2643      C2648   1.414       .  A
C2643      C2652   1.403       .  A
C2644      F2660   1.381       .  S
C2644      F2661   1.382       .  S
C2644      F2662   1.385       .  S
C2646      F2657   1.384       .  S
C2646      F2658   1.383       .  S
C2646      F2659   1.378       .  S
C2648      C2649   1.408       .  A
C2648      C2653   1.520   1_655  S
C2649      C2650   1.411       .  A
C2649      H2654   1.082   1_655  S
C2650      C2651   1.427       .  A
C2651      C2652   1.412       .  A
C2651      C2655   1.520       .  S
C2652      H2656   1.083       .  S
C2653      F2666   1.385       .  S
C2653      F2667   1.381       .  S
C2653      F2668   1.382   1_455  S
C2655      F2663   1.383       .  S
C2655      F2664   1.383       .  S
C2655      F2665   1.385       .  S
C2669      C2670   1.400       .  A
C2669      C2674   1.408       .  A
C2669      H2679   1.083       .  S
C2670      C2671   1.411   1_655  A
C2670      C2675   1.482       .  S
C2671      C2672   1.406       .  A
C2671      C2676   1.520       .  S
C2672      C2673   1.409   1_455  A
C2672      H2677   1.083       .  S
C2673      C2674   1.426       .  A
C2674      C2678   1.521       .  S
C2675      C2680   1.413   1_655  A
C2675      C2684   1.400       .  A
C2676      F2692   1.383   1_455  S
C2676      F2693   1.382       .  S
C2676      F2694   1.383       .  S
C2678      F2689   1.382       .  S
C2678      F2690   1.384       .  S
C2678      F2691   1.383       .  S
C2680      C2681   1.404       .  A
C2680      C2685   1.520       .  S
C2681      C2682   1.404       .  A
C2681      H2686   1.081       .  S
C2682      C2683   1.422   1_455  A
C2683      C2684   1.406       .  A
C2683      C2687   1.515       .  S
C2684      H2688   1.085       .  S
C2685      F2698   1.384       .  S
C2685      F2699   1.382       .  S
C2685      F2700   1.382       .  S
C2687      F2695   1.384       .  S
C2687      F2696   1.379       .  S
C2687      F2697   1.383       .  S
C2701      C2702   1.398       .  A
C2701      C2706   1.405       .  A
C2701      H2711   1.083       .  S
C2702      C2703   1.413   1_455  A
C2702      C2707   1.481       .  S
C2703      C2704   1.408       .  A
C2703      C2708   1.519       .  S
C2704      C2705   1.409   1_655  A
C2704      H2709   1.083       .  S
C2705      C2706   1.423       .  A
C2706      C2710   1.519       .  S
C2707      C2712   1.414       .  A
C2707      C2716   1.404       .  A
C2708      F2724   1.382       .  S
C2708      F2725   1.382       .  S
C2708      F2726   1.384       .  S
C2710      F2721   1.382       .  S
C2710      F2722   1.385       .  S
C2710      F2723   1.383       .  S
C2712      C2713   1.401       .  A
C2712      C2717   1.519   1_455  S
C2713      C2714   1.404       .  A
C2713      H2718   1.083   1_455  S
C2714      C2715   1.414       .  A
C2715      C2716   1.408       .  A
C2715      C2719   1.516       .  S
C2716      H2720   1.083       .  S
C2717      F2730   1.385       .  S
C2717      F2731   1.382       .  S
C2717      F2732   1.382       .  S
C2719      F2727   1.383       .  S
C2719      F2728   1.378       .  S
C2719      F2729   1.384       .  S
C2733      C2734   1.401       .  A
C2733      C2738   1.402       .  A
C2733      H2743   1.085       .  S
C2734      C2735   1.414       .  A
C2734      C2739   1.478       .  S
C2735      C2736   1.405       .  A
C2735      C2740   1.520   1_455  S
C2736      C2737   1.403       .  A
C2736      H2741   1.083   1_455  S
C2737      C2738   1.417       .  A
C2738      C2742   1.519       .  S
C2739      C2744   1.413       .  A
C2739      C2748   1.394       .  A
C2740      F2756   1.382       .  S
C2740      F2757   1.382       .  S
C2740      F2758   1.384       .  S
C2742      F2753   1.383       .  S
C2742      F2754   1.384       .  S
C2742      F2755   1.381       .  S
C2744      C2745   1.407       .  A
C2744      C2749   1.521       .  S
C2745      C2746   1.411       .  A
C2745      H2750   1.082       .  S
C2746      C2747   1.431   1_455  A
C2747      C2748   1.404   1_655  A
C2747      C2751   1.520       .  S
C2748      H2752   1.083       .  S
C2749      F2762   1.384       .  S
C2749      F2763   1.382       .  S
C2749      F2764   1.382       .  S
C2751      F2759   1.386       .  S
C2751      F2760   1.383   1_655  S
C2751      F2761   1.381       .  S
C2765      C2766   1.404   1_655  A
C2765      C2770   1.410       .  A
C2765      H2775   1.084       .  S
C2766      C2767   1.414       .  A
C2766      C2771   1.487       .  S
C2767      C2768   1.404       .  A
C2767      C2772   1.520       .  S
C2768      C2769   1.405       .  A
C2768      H2773   1.078       .  S
C2769      C2770   1.419   1_455  A
C2770      C2774   1.513       .  S
C2771      C2776   1.414       .  A
C2771      C2780   1.402   1_455  A
C2772      F2788   1.382       .  S
C2772      F2789   1.381       .  S
C2772      F2790   1.385       .  S
C2774      F2785   1.383       .  S
C2774      F2786   1.384       .  S
C2774      F2787   1.381       .  S
C2776      C2777   1.405       .  A
C2776      C2781   1.520       .  S
C2777      C2778   1.407   1_455  A
C2777      H2782   1.083       .  S
C2778      C2779   1.424       .  A
C2779      C2780   1.412       .  A
C2779      C2783   1.520       .  S
C2780      H2784   1.083       .  S
C2781      F2794   1.385       .  S
C2781      F2795   1.383       .  S
C2781      F2796   1.381       .  S
C2783      F2791   1.384       .  S
C2783      F2792   1.381       .  S
C2783      F2793   1.385       .  S
