geometry optimzed in LAMMPS
_audit_creation_date              2020-11-30 
_audit_creation_method            'lammps2cif' 
_symmetry_space_group_name_H-M    'P1' 
_symmetry_Int_Tables_number       1 
_symmetry_cell_setting            triclinic 
loop_ 
_symmetry_equiv_pos_as_xyz 
  x,y,z 
_cell_length_a                    95.07445924 
_cell_length_b                    95.1738198741155 
_cell_length_c                    95.05454366524837 
_cell_angle_alpha                 90.02106371958344 
_cell_angle_beta                  89.9701653815558 
_cell_angle_gamma                 90.01512037982849 
loop_ 
_atom_site_label 
_atom_site_type_symbol 
_atom_site_fract_x 
_atom_site_fract_y 
_atom_site_fract_z 
_atom_site_charge 
O1          O  0.51612616  0.09656460  0.48556736    -0.73100
O2          O  0.48724003  0.09653534  0.51655792    -0.74100
O3          O  0.51729069  0.09679207  0.51549164    -0.62700
O4          O  0.48620854  0.09615831  0.48654257    -0.71100
O5          O  0.48630034  0.07287583  0.48717277    -0.70600
O6          O  0.51749956  0.07350420  0.51535254    -0.61900
O7          O  0.48777191  0.07325686  0.51696074    -0.74400
O8          O  0.51602872  0.07327121  0.48553508    -0.73200
Cu9        Cu  0.50170500  0.09734098  0.50103800     1.04600
Cu10       Cu  0.50191493  0.07244306  0.50126392     1.04300
C11         C  0.52059687  0.08490804  0.48060244     0.93100
C12         C  0.48294495  0.08487544  0.52168806     0.92300
C13         C  0.52231396  0.08515437  0.51997736     0.84400
C14         C  0.48135309  0.08435622  0.48229017     0.90700
O15         O  0.16761070  0.44506055  0.51510847    -0.73100
O16         O  0.16730660  0.41458768  0.48552456    -0.74100
O17         O  0.16776614  0.44455335  0.48513016    -0.62700
O18         O  0.16713774  0.41511685  0.51554274    -0.71100
O19         O  0.14382735  0.41572313  0.51544354    -0.70600
O20         O  0.14444626  0.44453523  0.48499335    -0.61900
O21         O  0.14399398  0.41482370  0.48576215    -0.74400
O22         O  0.14430329  0.44536140  0.51477102    -0.73200
Cu23       Cu  0.16829626  0.42981873  0.50032913     1.04600
Cu24       Cu  0.14336746  0.43013332  0.50023262     1.04300
C25         C  0.15594176  0.45002066  0.51961629     0.93100
C26         C  0.15554403  0.40983459  0.48103383     0.92300
C27         C  0.15612552  0.44914339  0.48021296     0.84400
C28         C  0.15532305  0.41080599  0.52032584     0.90700
O29         O  0.48569439  0.75698949  0.51546937    -0.73100
O30         O  0.51437329  0.75868231  0.48432529    -0.74100
O31         O  0.51562768  0.75839313  0.51421828    -0.62700
O32         O  0.48439664  0.75735518  0.48550670    -0.71100
O33         O  0.48344855  0.78062241  0.48609113    -0.70600
O34         O  0.51449834  0.78165695  0.51443656    -0.61900
O35         O  0.51327363  0.78194316  0.48470716    -0.74400
O36         O  0.48483302  0.78026381  0.51571798    -0.73200
Cu37       Cu  0.50006287  0.75702200  0.49986173     1.04600
Cu38       Cu  0.49898394  0.78190106  0.50023375     1.04300
C39         C  0.48070047  0.76841405  0.52049375     0.93100
C40         C  0.51843273  0.77061269  0.47965585     0.92300
C41         C  0.51996920  0.77023611  0.51888033     0.84400
C42         C  0.47891093  0.76890525  0.48135265     0.90700
O43         O  0.85663854  0.41222918  0.51522721    -0.73100
O44         O  0.85592043  0.44061330  0.48410127    -0.74100
O45         O  0.85571084  0.44188416  0.51389793    -0.62700
O46         O  0.85697851  0.41092824  0.48545432    -0.71100
O47         O  0.83368447  0.40998423  0.48527549    -0.70600
O48         O  0.83239426  0.44157134  0.51358451    -0.61900
O49         O  0.83262193  0.43980474  0.48369058    -0.74400
O50         O  0.83332886  0.41168102  0.51522132    -0.73200
Cu51       Cu  0.85710005  0.42644172  0.49967354     1.04600
Cu52       Cu  0.83218022  0.42572248  0.49944175     1.04300
C53         C  0.84508787  0.40747685  0.52019976     0.93100
C54         C  0.84420269  0.44470628  0.47893853     0.92300
C55         C  0.84393586  0.44665974  0.51826709     0.84400
C56         C  0.84558040  0.40554782  0.48080846     0.90700
O57         O  0.48371678  0.44128620  0.17050136    -0.73100
O58         O  0.51424187  0.41170753  0.17022374    -0.74100
O59         O  0.51384144  0.44173269  0.17073852    -0.62700
O60         O  0.48418605  0.41135946  0.16999816    -0.71100
O61         O  0.48466338  0.41171844  0.14668808    -0.70600
O62         O  0.51366693  0.44217011  0.14742910    -0.61900
O63         O  0.51446789  0.41254342  0.14691851    -0.74400
O64         O  0.48384562  0.44137266  0.14718717    -0.73200
Cu65       Cu  0.49899390  0.42651283  0.17120910     1.04600
Cu66       Cu  0.49916852  0.42696520  0.14628664     1.04300
C67         C  0.47884331  0.44587140  0.15882474     0.93100
C68         C  0.51925339  0.40755595  0.15843682     0.92300
C69         C  0.51845719  0.44673619  0.15912493     0.84400
C70         C  0.47973192  0.40675790  0.15816337     0.90700
O71         O  0.48526652  0.44143580  0.83365898    -0.73100
O72         O  0.51527798  0.41176166  0.83287303    -0.74100
O73         O  0.48520184  0.41154416  0.83303475    -0.62700
O74         O  0.51511822  0.44152429  0.83361163    -0.71100
O75         O  0.51511769  0.44081796  0.85692615    -0.70600
O76         O  0.48541677  0.41117691  0.85635226    -0.61900
O77         O  0.51518965  0.41118557  0.85619490    -0.74400
O78         O  0.48545174  0.44088556  0.85697703    -0.73200
Cu79       Cu  0.50019599  0.42655654  0.83246052     1.04600
Cu80       Cu  0.50027974  0.42597593  0.85739847     1.04300
C81         C  0.48073203  0.44597827  0.84547460     0.93100
C82         C  0.52011619  0.40691579  0.84443842     0.92300
C83         C  0.48051779  0.40668623  0.84467878     0.84400
C84         C  0.51985303  0.44588656  0.84542323     0.90700
O85         O  0.01391078  0.57058436  0.01515348    -0.73100
O86         O  0.98390949  0.57078313  0.98569374    -0.74100
O87         O  0.01366431  0.57065529  0.98547030    -0.62700
O88         O  0.98404265  0.57088935  0.01553553    -0.71100
O89         O  0.98411362  0.59417579  0.01555797    -0.70600
O90         O  0.01387745  0.59394431  0.98539451    -0.61900
O91         O  0.98388599  0.59406419  0.98545771    -0.74400
O92         O  0.01415072  0.59387348  0.01542085    -0.73200
Cu93       Cu  0.99885825  0.56995423  0.00048291     1.04600
Cu94       Cu  0.99900108  0.59485067  0.00047448     1.04300
C95         C  0.01891074  0.58210936  0.01988272     0.93100
C96         C  0.97920748  0.58234881  0.98076580     0.92300
C97         C  0.01848074  0.58223721  0.98065973     0.84400
C98         C  0.97935148  0.58254298  0.02031289     0.90700
O99         O  0.64509508  0.94142009  0.98359999    -0.73100
O100        O  0.64449653  0.91307528  0.01442985    -0.74100
O101        O  0.64434433  0.94273739  0.01326445    -0.62700
O102        O  0.64533572  0.91179709  0.98476131    -0.71100
O103        O  0.66864664  0.91195331  0.98515947    -0.70600
O104        O  0.66764349  0.94296700  0.01403799    -0.61900
O105        O  0.66780188  0.91301314  0.01512724    -0.74400
O106        O  0.66840203  0.94187372  0.98403535    -0.73200
Cu107      Cu  0.64404692  0.92725085  0.99899604     1.04600
Cu108      Cu  0.66896838  0.92745860  0.99961542     1.04300
C109        C  0.65673875  0.94618333  0.97890067     0.93100
C110        C  0.65596916  0.90848632  0.01967184     0.92300
C111        C  0.65578464  0.94775602  0.01821681     0.84400
C112        C  0.65709664  0.90699305  0.98037597     0.90700
O113        O  0.01448088  0.28062770  0.98643879    -0.73100
O114        O  0.98382417  0.27876125  0.01510841    -0.74100
O115        O  0.01356667  0.27978566  0.01607046    -0.62700
O116        O  0.98480754  0.27959984  0.98545065    -0.71100
O117        O  0.98528138  0.25632201  0.98486022    -0.70600
O118        O  0.01468028  0.25653134  0.01548545    -0.61900
O119        O  0.98463917  0.25548488  0.01490454    -0.74400
O120        O  0.01526479  0.25736808  0.98550085    -0.73200
Cu121      Cu  0.99913202  0.28045822  0.00079773     1.04600
Cu122      Cu  0.99998581  0.25557901  0.00016953     1.04300
C123        C  0.01977006  0.26936099  0.98140959     0.93100
C124        C  0.97933673  0.26692570  0.01958078     0.92300
C125        C  0.01880864  0.26827773  0.02057118     0.84400
C126        C  0.98046830  0.26800282  0.98026367     0.90700
O127        O  0.33278418  0.94165076  0.01262195    -0.73100
O128        O  0.33220752  0.91201164  0.98237231    -0.74100
O129        O  0.33322809  0.91171173  0.01230840    -0.62700
O130        O  0.33167946  0.94184599  0.98266794    -0.71100
O131        O  0.35498055  0.94211627  0.98186836    -0.70600
O132        O  0.35652251  0.91215637  0.01143286    -0.61900
O133        O  0.35551180  0.91242174  0.98168481    -0.74400
O134        O  0.35608179  0.94186838  0.01168904    -0.73200
Cu135      Cu  0.33164820  0.92679905  0.99753100     1.04600
Cu136      Cu  0.35656248  0.92716725  0.99664594     1.04300
C137        C  0.34459080  0.94641131  0.01696866     0.93100
C138        C  0.34381179  0.90754727  0.97723366     0.92300
C139        C  0.34514341  0.90712963  0.01653059     0.84400
C140        C  0.34311577  0.94667802  0.97750266     0.90700
O141        O  0.98484840  0.90978964  0.64239278    -0.73100
O142        O  0.01374979  0.94032664  0.64368129    -0.74100
O143        O  0.01450586  0.91060747  0.64408392    -0.62700
O144        O  0.98413744  0.93954647  0.64201803    -0.71100
O145        O  0.98296259  0.93996499  0.66531083    -0.70600
O146        O  0.01318263  0.91053390  0.66737296    -0.61900
O147        O  0.01283251  0.94047844  0.66698553    -0.74400
O148        O  0.98335591  0.91003801  0.66566484    -0.73200
Cu149      Cu  0.99934942  0.92505089  0.64225940     1.04600
Cu150      Cu  0.99802473  0.92526524  0.66716477     1.04300
C151        C  0.97953343  0.90502242  0.65377966     0.93100
C152        C  0.01789511  0.94526571  0.65547199     0.92300
C153        C  0.01864796  0.90593335  0.65597990     0.84400
C154        C  0.97881725  0.94445927  0.65333597     0.90700
O155        O  0.98720188  0.94226623  0.33049015    -0.73100
O156        O  0.01570930  0.91095646  0.33118914    -0.74100
O157        O  0.98581022  0.91238936  0.33039724    -0.62700
O158        O  0.01710063  0.94088723  0.33127247    -0.71100
O159        O  0.01651202  0.94063849  0.35458564    -0.70600
O160        O  0.98526873  0.91252737  0.35371537    -0.61900
O161        O  0.01488174  0.91087715  0.35449836    -0.74400
O162        O  0.98690461  0.94226989  0.35381468    -0.73200
Cu163      Cu  0.00148547  0.92662116  0.33000456     1.04600
Cu164      Cu  0.00087319  0.92657332  0.35493817     1.04300
C165        C  0.98261498  0.94727254  0.34210608     0.93100
C166        C  0.01972403  0.90590271  0.34298928     0.92300
C167        C  0.98060868  0.90793933  0.34197601     0.84400
C168        C  0.02168913  0.94533904  0.34310897     0.90700
N169        N  0.64958048  0.83684704  0.65888030    -0.27400
N170        N  0.64069296  0.83880264  0.64840226    -0.35300
C171        C  0.63876573  0.85263410  0.64646713     0.00900
C172        C  0.64687022  0.85983592  0.65619628     0.06900
C173        C  0.65364711  0.84944741  0.66387678    -0.06200
H174        H  0.63196524  0.85706219  0.63850341     0.07600
H175        H  0.66074569  0.85089417  0.67264622     0.08800
Cu176      Cu  0.63141862  0.82259541  0.63736764     0.44200
Cu177      Cu  0.65503051  0.81695190  0.66587694     0.42000
Cu178      Cu  0.63865898  0.78691304  0.64757497     0.43900
N179        N  0.62281538  0.80530527  0.62749730    -0.34800
N180        N  0.62532166  0.79215789  0.63113132    -0.29100
C181        C  0.61790400  0.78357944  0.62265120    -0.05200
C182        C  0.61036146  0.79177470  0.61319583     0.07000
C183        C  0.61379487  0.80549853  0.61666664     0.00800
H184        H  0.61804940  0.77224215  0.62335794     0.08500
H185        H  0.60992931  0.81503957  0.61187185     0.07600
N186        N  0.65258957  0.78521059  0.66428737    -0.36300
N187        N  0.65843907  0.79600249  0.67081173    -0.28400
C188        C  0.66713158  0.79117304  0.68083290    -0.03700
C189        C  0.66682940  0.77660291  0.68065597     0.04900
C190        C  0.65743330  0.77323591  0.67000505     0.03000
H191        H  0.67330736  0.79789510  0.68760170     0.08100
H192        H  0.65448821  0.76287175  0.66639884     0.07000
N193        N  0.65063646  0.01512311  0.65851858    -0.27400
N194        N  0.64060817  0.01336279  0.64908099    -0.35300
C195        C  0.63768146  0.99959516  0.64797588     0.00900
C196        C  0.64632231  0.99226276  0.65715993     0.06900
C197        C  0.65441459  0.00251447  0.66365794    -0.06200
H198        H  0.62998472  0.99528597  0.64079862     0.07600
H199        H  0.66242179  0.00099829  0.67158724     0.08800
Cu200      Cu  0.63162234  0.02978364  0.63796336     0.44200
Cu201      Cu  0.65853173  0.03466659  0.66385516     0.42000
Cu202      Cu  0.64394274  0.06497837  0.64518506     0.43900
N203        N  0.62420032  0.04753251  0.62777044    -0.34800
N204        N  0.62869048  0.06042641  0.63026859    -0.29100
C205        C  0.62171922  0.06941946  0.62185457    -0.05200
C206        C  0.61232526  0.06180777  0.61365452     0.07000
C207        C  0.61427201  0.04795116  0.61774841     0.00800
H208        H  0.62332460  0.08066724  0.62185609     0.08500
H209        H  0.60897466  0.03873587  0.61373360     0.07600
N210        N  0.65897105  0.06626947  0.66094607    -0.36300
N211        N  0.66421235  0.05530581  0.66767155    -0.28400
C212        C  0.67358645  0.05979302  0.67723778    -0.03700
C213        C  0.67434494  0.07431969  0.67654041     0.04900
C214        C  0.66489356  0.07802877  0.66606227     0.03000
H215        H  0.67946490  0.05288708  0.68408475     0.08100
H216        H  0.66235916  0.08848854  0.66242962     0.07000
N217        N  0.90875433  0.58222406  0.65291230    -0.27400
N218        N  0.91091154  0.57242893  0.64333157    -0.35300
C219        C  0.92476790  0.56993848  0.64230472     0.00900
C220        C  0.93178618  0.57860105  0.65173312     0.06900
C221        C  0.92120615  0.58626382  0.65827583    -0.06200
H222        H  0.92929815  0.56241754  0.63508794     0.07600
H223        H  0.92237585  0.59418118  0.66634828     0.08800
Cu224      Cu  0.89488838  0.56302746  0.63202762     0.44200
Cu225      Cu  0.88885788  0.58941915  0.65791635     0.42000
Cu226      Cu  0.85911111  0.57425808  0.63843761     0.43900
N227        N  0.87762443  0.55494323  0.62155380    -0.34800
N228        N  0.86451335  0.55897866  0.62373959    -0.29100
C229        C  0.85596448  0.55153129  0.61524623    -0.05200
C230        C  0.86411358  0.54234599  0.60730646     0.07000
C231        C  0.87779982  0.54487419  0.61167031     0.00800
H232        H  0.84466422  0.55275480  0.61493101     0.08500
H233        H  0.88727838  0.53970041  0.60811838     0.07600
N234        N  0.85723535  0.58935990  0.65416324    -0.36300
N235        N  0.86801881  0.59477585  0.66107462    -0.28400
C236        C  0.86325548  0.60413040  0.67051031    -0.03700
C237        C  0.84873617  0.60469224  0.66958118     0.04900
C238        C  0.84529322  0.59514242  0.65909220     0.03000
H239        H  0.86995023  0.60991115  0.67765381     0.08100
H240        H  0.83490474  0.59259602  0.65523128     0.07000
N241        N  0.08696168  0.58382123  0.65362136    -0.27400
N242        N  0.08504712  0.57371379  0.64429429    -0.35300
C243        C  0.07127087  0.57062774  0.64361687     0.00900
C244        C  0.06409765  0.57926379  0.65293668     0.06900
C245        C  0.07444145  0.58750641  0.65908428    -0.06200
H246        H  0.06682812  0.56285445  0.63660777     0.07600
H247        H  0.07304437  0.59553865  0.66701243     0.08800
Cu248      Cu  0.10121504  0.56488632  0.63261586     0.44200
Cu249      Cu  0.10658886  0.59182756  0.65859518     0.42000
Cu250      Cu  0.13655627  0.57674510  0.63984153     0.43900
N251        N  0.11881127  0.55771998  0.62189758    -0.34800
N252        N  0.13177841  0.56195785  0.62451340    -0.29100
C253        C  0.14070812  0.55498647  0.61601205    -0.05200
C254        C  0.13297645  0.54590696  0.60757806     0.07000
C255        C  0.11911607  0.54800094  0.61165733     0.00800
H256        H  0.15199248  0.55639756  0.61608665     0.08500
H257        H  0.10987860  0.54263662  0.60776950     0.07600
N258        N  0.13824099  0.59131718  0.65600999    -0.36300
N259        N  0.12738302  0.59678460  0.66275892    -0.28400
C260        C  0.13211535  0.60545285  0.67286766    -0.03700
C261        C  0.14668702  0.60548171  0.67250657     0.04900
C262        C  0.15017313  0.59640099  0.66163463     0.03000
H263        H  0.12537310  0.61125071  0.67995940     0.08100
H264        H  0.16060160  0.59342043  0.65821285     0.07000
N265        N  0.65434869  0.57969276  0.91241533    -0.27400
N266        N  0.64390504  0.57074447  0.91423931    -0.35300
C267        C  0.64143366  0.56920466  0.92805525     0.00900
C268        C  0.65080375  0.57761005  0.93540893     0.06900
C269        C  0.65885592  0.58410514  0.92508597    -0.06200
H270        H  0.63348856  0.56229510  0.93234284     0.07600
H271        H  0.66730191  0.59156062  0.92659766     0.08800
Cu272      Cu  0.63367122  0.56088424  0.89788204     0.44200
Cu273      Cu  0.66161893  0.58532526  0.89261203     0.42000
Cu274      Cu  0.64340654  0.56975488  0.86226101     0.43900
N275        N  0.62500680  0.55154210  0.88035614    -0.34800
N276        N  0.62829249  0.55477674  0.86724696    -0.29100
C277        C  0.62084430  0.54649051  0.85849722    -0.05200
C278        C  0.61259624  0.53753958  0.86655733     0.07000
C279        C  0.61551871  0.54112265  0.88035262     0.00800
H280        H  0.62166137  0.54673949  0.84714989     0.08500
H281        H  0.61108758  0.53654416  0.88977705     0.07600
N282        N  0.65973536  0.58422720  0.86080392    -0.36300
N283        N  0.66635384  0.58970330  0.87173970    -0.28400
C284        C  0.67632298  0.59858657  0.86710713    -0.03700
C285        C  0.67603446  0.59879095  0.85251012     0.04900
C286        C  0.66534022  0.58950491  0.84893432     0.03000
H287        H  0.68321363  0.60446473  0.87397440     0.08100
H288        H  0.66175151  0.58678177  0.83849519     0.07000
N289        N  0.65646024  0.57663934  0.09100513    -0.27400
N290        N  0.64694913  0.56671070  0.08915366    -0.35300
C291        C  0.64464431  0.56504483  0.07531902     0.00900
C292        C  0.65310810  0.57442570  0.06800143     0.06900
C293        C  0.66048031  0.58159104  0.07837727    -0.06200
H294        H  0.63723228  0.55758184  0.07101811     0.07600
H295        H  0.66804635  0.58995253  0.07695918     0.08800
Cu296      Cu  0.63707657  0.55634492  0.10554803     0.44200
Cu297      Cu  0.66292476  0.58321038  0.11072349     0.42000
Cu298      Cu  0.64615388  0.56643553  0.14109653     0.43900
N299        N  0.62761025  0.54795341  0.12326785    -0.34800
N300        N  0.63096174  0.55139439  0.13631443    -0.29100
C301        C  0.62259081  0.54422547  0.14523020    -0.05200
C302        C  0.61343979  0.53598960  0.13738253     0.07000
C303        C  0.61699813  0.53864219  0.12350485     0.00800
H304        H  0.62288016  0.54526401  0.15655838     0.08500
H305        H  0.61222548  0.53417394  0.11419546     0.07600
N306        N  0.66078697  0.58268684  0.14246277    -0.36300
N307        N  0.66680917  0.58865991  0.13144589    -0.28400
C308        C  0.67537345  0.59897774  0.13587432    -0.03700
C309        C  0.67477042  0.59965396  0.15043798     0.04900
C310        C  0.66538882  0.58909871  0.15421199     0.03000
H311        H  0.68142175  0.60558229  0.12887479     0.08100
H312        H  0.66203001  0.58626412  0.16469973     0.07000
N313        N  0.91076191  0.58081376  0.34682131    -0.27400
N314        N  0.91271029  0.57129105  0.35671239    -0.35300
C315        C  0.92651637  0.57024164  0.35948423     0.00900
C316        C  0.93372634  0.57960805  0.35091850     0.06900
C317        C  0.92330894  0.58611594  0.34301013    -0.06200
H318        H  0.93085753  0.56322204  0.36728944     0.07600
H319        H  0.92463746  0.59418530  0.33512321     0.08800
Cu320      Cu  0.89645937  0.56048656  0.36623761     0.44200
Cu321      Cu  0.89098732  0.58634820  0.33950854     0.42000
Cu322      Cu  0.86077054  0.56954572  0.35643217     0.43900
N323        N  0.87882976  0.55115763  0.37483454    -0.34800
N324        N  0.86575750  0.55430486  0.37134226    -0.29100
C325        C  0.85693379  0.54629334  0.37900328    -0.05200
C326        C  0.86486454  0.53772933  0.38778893     0.07000
C327        C  0.87870793  0.54115308  0.38477307     0.00800
H328        H  0.84559506  0.54682261  0.37830878     0.08500
H329        H  0.88810510  0.53668314  0.38934516     0.07600
N330        N  0.85922343  0.58523882  0.34122520    -0.36300
N331        N  0.87018804  0.59105881  0.33494294    -0.28400
C332        C  0.86563014  0.60071818  0.32569266    -0.03700
C333        C  0.85107603  0.60112925  0.32618952     0.04900
C334        C  0.84739338  0.59115688  0.33618488     0.03000
H335        H  0.87247834  0.60717743  0.31930800     0.08100
H336        H  0.83689073  0.58831239  0.33950564     0.07000
N337        N  0.08895652  0.58374705  0.34658727    -0.27400
N338        N  0.08703318  0.57374401  0.35600824    -0.35300
C339        C  0.07323583  0.57242048  0.35864135     0.00900
C340        C  0.06600021  0.58208483  0.35048811     0.06900
C341        C  0.07636538  0.58907629  0.34293291    -0.06200
H342        H  0.06887904  0.56486149  0.36592679     0.07600
H343        H  0.07494005  0.59750679  0.33544582     0.08800
Cu344      Cu  0.10315001  0.56242786  0.36510562     0.44200
Cu345      Cu  0.10874941  0.58949167  0.33947257     0.42000
Cu346      Cu  0.13866824  0.57150910  0.35591520     0.43900
N347        N  0.12057092  0.55274918  0.37367969    -0.34800
N348        N  0.13366057  0.55617008  0.37054486    -0.29100
C349        C  0.14245882  0.54804777  0.37806616    -0.05200
C350        C  0.13448572  0.53901390  0.38629841     0.07000
C351        C  0.12064393  0.54235257  0.38320949     0.00800
H352        H  0.15380150  0.54860567  0.37742406     0.08500
H353        H  0.11124645  0.53774413  0.38766224     0.07600
N354        N  0.14043709  0.58655574  0.34025250    -0.36300
N355        N  0.12964972  0.59297825  0.33429903    -0.28400
C356        C  0.13448138  0.60196990  0.32453864    -0.03700
C357        C  0.14905748  0.60123558  0.32427793     0.04900
C358        C  0.15241115  0.59130214  0.33442669     0.03000
H359        H  0.12776170  0.60856323  0.31817955     0.08100
H360        H  0.16276296  0.58771686  0.33745136     0.07000
N361        N  0.65432913  0.83918897  0.34609737    -0.27400
N362        N  0.64416418  0.84114816  0.35535100    -0.35300
C363        C  0.64246515  0.85498272  0.35750598     0.00900
C364        C  0.65206688  0.86217208  0.34921219     0.06900
C365        C  0.65943485  0.85176194  0.34211824    -0.06200
H366        H  0.63496200  0.85939759  0.36482800     0.07600
H367        H  0.66787048  0.85315921  0.33461241     0.08800
Cu368      Cu  0.63346078  0.82489760  0.36499761     0.44200
Cu369      Cu  0.66070939  0.81936620  0.33978134     0.42000
Cu370      Cu  0.64417109  0.78923136  0.35740377     0.43900
N371        N  0.62442687  0.80741603  0.37419274    -0.34800
N372        N  0.62832006  0.79433027  0.37168172    -0.29100
C373        C  0.62034885  0.78563969  0.37954698    -0.05200
C374        C  0.61094365  0.79367652  0.38735152     0.07000
C375        C  0.61392911  0.80743732  0.38362898     0.00800
H376        H  0.62128105  0.77431719  0.37945510     0.08500
H377        H  0.60899467  0.81688888  0.38756021     0.07600
N378        N  0.65965573  0.78763546  0.34193561    -0.36300
N379        N  0.66544394  0.79854136  0.33555416    -0.28400
C380        C  0.67477452  0.79392863  0.32599477    -0.03700
C381        C  0.67496970  0.77936004  0.32628030     0.04900
C382        C  0.66521260  0.77577693  0.33657455     0.03000
H383        H  0.68094386  0.80079958  0.31937034     0.08100
H384        H  0.66220507  0.76533840  0.33989239     0.07000
N385        N  0.65599266  0.01710863  0.34862944    -0.27400
N386        N  0.64611107  0.01520259  0.35819871    -0.35300
C387        C  0.64487554  0.00139724  0.36086856     0.00900
C388        C  0.65444466  0.99422162  0.35252348     0.06900
C389        C  0.66129611  0.00456751  0.34488123    -0.06200
H390        H  0.63741542  0.99695757  0.36822186     0.07600
H391        H  0.66960286  0.00315732  0.33723442     0.08800
Cu392      Cu  0.63495266  0.03154209  0.36718166     0.44200
Cu393      Cu  0.66167638  0.03671433  0.34123912     0.42000
Cu394      Cu  0.64331863  0.06700175  0.35605428     0.43900
N395        N  0.62595614  0.04937334  0.37574097    -0.34800
N396        N  0.62889905  0.06235142  0.37178296    -0.29100
C397        C  0.62142549  0.07136348  0.37975236    -0.05200
C398        C  0.61346026  0.06365205  0.38924980     0.07000
C399        C  0.61661641  0.04974947  0.38631490     0.00800
H400        H  0.62196290  0.08267633  0.37882661     0.08500
H401        H  0.61242368  0.04049663  0.39141223     0.07600
N402        N  0.65857968  0.06825935  0.34047819    -0.36300
N403        N  0.66523063  0.05726591  0.33520228    -0.28400
C404        C  0.67441659  0.06164531  0.32540800    -0.03700
C405        C  0.67356127  0.07615041  0.32439058     0.04900
C406        C  0.66337855  0.07994768  0.33415731     0.03000
H407        H  0.68123638  0.05467872  0.31956193     0.08100
H408        H  0.65962918  0.09040182  0.33654051     0.07000
N409        N  0.91130139  0.27518897  0.65732537    -0.27400
N410        N  0.91339201  0.28486048  0.64760287    -0.35300
C411        C  0.92728189  0.28662880  0.64575202     0.00900
C412        C  0.93438521  0.27760638  0.65475995     0.06900
C413        C  0.92382915  0.27052984  0.66196277    -0.06200
H414        H  0.93177987  0.29397634  0.63833987     0.07600
H415        H  0.92507787  0.26242224  0.66982644     0.08800
Cu416      Cu  0.89723277  0.29502094  0.63713831     0.44200
Cu417      Cu  0.89139542  0.26868693  0.66328499     0.42000
Cu418      Cu  0.86146906  0.28473037  0.64495745     0.43900
N419        N  0.87973414  0.30395624  0.62776034    -0.34800
N420        N  0.86662596  0.30019777  0.63043418    -0.29100
C421        C  0.85789438  0.30803821  0.62251258    -0.05200
C422        C  0.86591833  0.31723899  0.61450237     0.07000
C423        C  0.87971890  0.31428067  0.61814661     0.00800
H424        H  0.84655387  0.30718445  0.62272869     0.08500
H425        H  0.88914970  0.31913048  0.61403788     0.07600
N426        N  0.85970696  0.26931957  0.66033210    -0.36300
N427        N  0.87053338  0.26359070  0.66690499    -0.28400
C428        C  0.86578733  0.25401473  0.67613091    -0.03700
C429        C  0.85123946  0.25364836  0.67540379     0.04900
C430        C  0.84777277  0.26353508  0.66525646     0.03000
H431        H  0.87251769  0.24788296  0.68293481     0.08100
H432        H  0.83737079  0.26627306  0.66157044     0.07000
N433        N  0.08975154  0.27312649  0.65301420    -0.27400
N434        N  0.08744648  0.28136084  0.64209958    -0.35300
C435        C  0.07352434  0.28249760  0.64002179     0.00900
C436        C  0.06661760  0.27457243  0.65016484     0.06900
C437        C  0.07733910  0.26876279  0.65820722    -0.06200
H438        H  0.06887937  0.28887103  0.63184443     0.07600
H439        H  0.07629545  0.26199374  0.66727556     0.08800
Cu440      Cu  0.10340015  0.29120568  0.63111103     0.44200
Cu441      Cu  0.10977544  0.26869127  0.66030454     0.42000
Cu442      Cu  0.13945404  0.28547708  0.64245536     0.43900
N443        N  0.12061038  0.30135922  0.62257434    -0.34800
N444        N  0.13375322  0.29945995  0.62664672    -0.29100
C445        C  0.14212551  0.30818398  0.61927941    -0.05200
C446        C  0.13382579  0.31599393  0.61012818     0.07000
C447        C  0.12023938  0.31128520  0.61256975     0.00800
H448        H  0.15338554  0.30887180  0.62068861     0.08500
H449        H  0.11064412  0.31488490  0.60766776     0.07600
N450        N  0.14148361  0.27114399  0.65884713    -0.36300
N451        N  0.13068382  0.26522533  0.66529758    -0.28400
C452        C  0.13548085  0.25634609  0.67515772    -0.03700
C453        C  0.15006324  0.25656772  0.67497204     0.04900
C454        C  0.15346747  0.26613954  0.66446766     0.03000
H455        H  0.12872026  0.25010047  0.68182756     0.08100
H456        H  0.16385854  0.26911308  0.66093108     0.07000
N457        N  0.35020477  0.83775922  0.65574603    -0.27400
N458        N  0.36020286  0.83923504  0.64622967    -0.35300
C459        C  0.36289702  0.85295253  0.64440393     0.00900
C460        C  0.35414150  0.86061573  0.65320965     0.06900
C461        C  0.34624020  0.85055082  0.66026399    -0.06200
H462        H  0.37062210  0.85693009  0.63707460     0.07600
H463        H  0.33810007  0.85229758  0.66801020     0.08800
Cu464      Cu  0.36959516  0.82262001  0.63596036     0.44200
Cu465      Cu  0.34246162  0.81832814  0.66182347     0.42000
Cu466      Cu  0.35810914  0.78759873  0.64466433     0.43900
N467        N  0.37779988  0.80475067  0.62684655    -0.34800
N468        N  0.37372185  0.79185173  0.62992831    -0.29100
C469        C  0.38120942  0.78272792  0.62210058    -0.05200
C470        C  0.39043401  0.79029118  0.61364846     0.07000
C471        C  0.38792047  0.80423475  0.61702678     0.00800
H472        H  0.37989063  0.77145051  0.62247734     0.08500
H473        H  0.39306688  0.81343157  0.61278111     0.07600
N474        N  0.34253965  0.78660796  0.66003134    -0.36300
N475        N  0.33690071  0.79771682  0.66618685    -0.28400
C476        C  0.32733873  0.79340855  0.67567403    -0.03700
C477        C  0.32687524  0.77883353  0.67556972     0.04900
C478        C  0.33669878  0.77493744  0.66546538     0.03000
H479        H  0.32129726  0.80046883  0.68221978     0.08100
H480        H  0.33949434  0.76441212  0.66223957     0.07000
N481        N  0.35108158  0.01622696  0.65778625    -0.27400
N482        N  0.36161180  0.01481471  0.64884460    -0.35300
C483        C  0.36386627  0.00110422  0.64645497     0.00900
C484        C  0.35426968  0.99337289  0.65426662     0.06900
C485        C  0.34633144  0.00339326  0.66135008    -0.06200
H486        H  0.37182122  0.99718478  0.63934271     0.07600
H487        H  0.33765664  0.00159041  0.66847933     0.08800
Cu488      Cu  0.37196646  0.03146896  0.63952215     0.44200
Cu489      Cu  0.34350810  0.03565923  0.66411999     0.42000
Cu490      Cu  0.35902444  0.06618308  0.64601653     0.43900
N491        N  0.37967557  0.04905405  0.62937886    -0.34800
N492        N  0.37492304  0.06191411  0.63151243    -0.29100
C493        C  0.38182711  0.07079675  0.62287488    -0.05200
C494        C  0.39134030  0.06309145  0.61486486     0.07000
C495        C  0.38964047  0.04934818  0.61938015     0.00800
H496        H  0.37987472  0.08197666  0.62232054     0.08500
H497        H  0.39520135  0.04014222  0.61570460     0.07600
N498        N  0.34335223  0.06733517  0.66134023    -0.36300
N499        N  0.33780656  0.05637321  0.66785687    -0.28400
C500        C  0.32801157  0.06089222  0.67702089    -0.03700
C501        C  0.32731141  0.07543107  0.67630663     0.04900
C502        C  0.33722783  0.07910114  0.66623011     0.03000
H503        H  0.32193658  0.05403069  0.68375255     0.08100
H504        H  0.33975995  0.08954592  0.66254838     0.07000
N505        N  0.65603246  0.27432443  0.91020938    -0.27400
N506        N  0.64532926  0.28292505  0.91217588    -0.35300
C507        C  0.64276854  0.28405598  0.92601326     0.00900
C508        C  0.65233808  0.27572954  0.93321886     0.06900
C509        C  0.66059621  0.26971432  0.92277396    -0.06200
H510        H  0.63460157  0.29063190  0.93039991     0.07600
H511        H  0.66928927  0.26251951  0.92410985     0.08800
Cu512      Cu  0.63493051  0.29300228  0.89599853     0.44200
Cu513      Cu  0.66374035  0.26948705  0.89044342     0.42000
Cu514      Cu  0.64699154  0.28691692  0.86048342     0.43900
N515        N  0.62661771  0.30292804  0.87856665    -0.34800
N516        N  0.63101547  0.30088543  0.86554802    -0.29100
C517        C  0.62365525  0.30927588  0.85685428    -0.05200
C518        C  0.61415961  0.31701981  0.86481650     0.07000
C519        C  0.61638275  0.31262418  0.87854449     0.00800
H520        H  0.62529064  0.30979046  0.84561032     0.08500
H521        H  0.61105911  0.31618458  0.88794049     0.07600
N522        N  0.66291148  0.27209403  0.85875991    -0.36300
N523        N  0.66894327  0.26587330  0.86961920    -0.28400
C524        C  0.67849028  0.25660732  0.86490665    -0.03700
C525        C  0.67852063  0.25691858  0.85032128     0.04900
C526        C  0.66848268  0.26692275  0.84682964     0.03000
H527        H  0.68477397  0.25003732  0.87171637     0.08100
H528        H  0.66519683  0.27007831  0.83641629     0.07000
N529        N  0.65535142  0.27468710  0.08860782    -0.27400
N530        N  0.64586544  0.28460391  0.08652290    -0.35300
C531        C  0.64394057  0.28631650  0.07263320     0.00900
C532        C  0.65267753  0.27704585  0.06555524     0.06900
C533        C  0.65979226  0.26986015  0.07606300    -0.06200
H534        H  0.63674185  0.29384314  0.06808062     0.07600
H535        H  0.66743469  0.26154789  0.07474176     0.08800
Cu536      Cu  0.63585425  0.29529708  0.10260773     0.44200
Cu537      Cu  0.66137318  0.26804861  0.10849373     0.42000
Cu538      Cu  0.64339734  0.28465062  0.13822050     0.43900
N539        N  0.62676715  0.30452408  0.12009601    -0.34800
N540        N  0.62935461  0.30063364  0.13317304    -0.29100
C541        C  0.62163345  0.30863028  0.14195058    -0.05200
C542        C  0.61376910  0.31804545  0.13400193     0.07000
C543        C  0.61738309  0.31506206  0.12017051     0.00800
H544        H  0.62171622  0.30753993  0.15326966     0.08500
H545        H  0.61350868  0.32008727  0.11074411     0.07600
N546        N  0.65867709  0.26912193  0.14018590    -0.36300
N547        N  0.66525378  0.26324803  0.12942997    -0.28400
C548        C  0.67476087  0.25401337  0.13432963    -0.03700
C549        C  0.67420571  0.25401396  0.14891608     0.04900
C550        C  0.66382497  0.26373593  0.15221207     0.03000
H551        H  0.68155240  0.24777888  0.12767359     0.08100
H552        H  0.66040132  0.26692165  0.16258060     0.07000
N553        N  0.34956211  0.58518462  0.91091987    -0.27400
N554        N  0.36010692  0.57637726  0.91286823    -0.35300
C555        C  0.36317535  0.57573050  0.92661916     0.00900
C556        C  0.35410233  0.58454335  0.93381725     0.06900
C557        C  0.34555502  0.59035283  0.92349582    -0.06200
H558        H  0.37121523  0.56901383  0.93103109     0.07600
H559        H  0.33707394  0.59777993  0.92497632     0.08800
Cu560      Cu  0.36964472  0.56519159  0.89696521     0.44200
Cu561      Cu  0.34147004  0.58942645  0.89105623     0.42000
Cu562      Cu  0.35742288  0.57000186  0.86155107     0.43900
N563        N  0.37793224  0.55459863  0.87999095    -0.34800
N564        N  0.37350404  0.55617167  0.86692641    -0.29100
C565        C  0.38120910  0.54782772  0.85846637    -0.05200
C566        C  0.39100333  0.54069804  0.86664159     0.07000
C567        C  0.38852106  0.54529286  0.88024899     0.00800
H568        H  0.37987167  0.54719660  0.84718927     0.08500
H569        H  0.39392010  0.54213038  0.88973969     0.07600
N570        N  0.34171064  0.58510340  0.85941197    -0.36300
N571        N  0.33599175  0.59203320  0.87003655    -0.28400
C572        C  0.32642229  0.60111680  0.86497629    -0.03700
C573        C  0.32603425  0.59993700  0.85042930     0.04900
C574        C  0.33591345  0.58963960  0.84732231     0.03000
H575        H  0.32038080  0.60820748  0.87149184     0.08100
H576        H  0.33875527  0.58568458  0.83704421     0.07000
N577        N  0.34506337  0.57786062  0.08899572    -0.27400
N578        N  0.35332701  0.56687248  0.08715379    -0.35300
C579        C  0.35593294  0.56531884  0.07334120     0.00900
C580        C  0.34895708  0.57586695  0.06604260     0.06900
C581        C  0.34215793  0.58360393  0.07640560    -0.06200
H582        H  0.36251055  0.55711476  0.06903448     0.07600
H583        H  0.33571768  0.59285615  0.07501668     0.08800
Cu584      Cu  0.36099081  0.55481874  0.10362394     0.44200
Cu585      Cu  0.33854476  0.58463883  0.10865001     0.42000
Cu586      Cu  0.35149872  0.56513890  0.13910070     0.43900
N587        N  0.36842081  0.54491975  0.12157997    -0.34800
N588        N  0.36511659  0.54868147  0.13454984    -0.29100
C589        C  0.37243957  0.54069419  0.14366134    -0.05200
C590        C  0.38076778  0.53142119  0.13605195     0.07000
C591        C  0.37786302  0.53444102  0.12207936     0.00800
H592        H  0.37188657  0.54176545  0.15497423     0.08500
H593        H  0.38264640  0.52977926  0.11287109     0.07600
N594        N  0.33843286  0.58259120  0.14038148    -0.36300
N595        N  0.33377727  0.58960592  0.12932718    -0.28400
C596        C  0.32569912  0.60031808  0.13373546    -0.03700
C597        C  0.32520374  0.60011532  0.14831058     0.04900
C598        C  0.33343735  0.58869245  0.15213135     0.03000
H599        H  0.32068512  0.60775007  0.12675536     0.08100
H600        H  0.33559463  0.58495756  0.16265082     0.07000
N601        N  0.34616571  0.83743213  0.34671613    -0.27400
N602        N  0.35551881  0.83921923  0.35681079    -0.35300
C603        C  0.35778998  0.85303393  0.35862121     0.00900
C604        C  0.34942976  0.86040332  0.34919397     0.06900
C605        C  0.34222043  0.85008183  0.34179266    -0.06200
H606        H  0.36500280  0.85730836  0.36629972     0.07600
H607        H  0.33447899  0.85158271  0.33360374     0.08800
Cu608      Cu  0.36442701  0.82272049  0.36783610     0.44200
Cu609      Cu  0.33906998  0.81775836  0.34064673     0.42000
Cu610      Cu  0.35181445  0.78744102  0.36081569     0.43900
N611        N  0.37202462  0.80495184  0.37782055    -0.34800
N612        N  0.36735053  0.79205586  0.37561751    -0.29100
C613        C  0.37478682  0.78309233  0.38370102    -0.05200
C614        C  0.38470795  0.79073675  0.39122914     0.07000
C615        C  0.38255052  0.80455432  0.38721513     0.00800
H616        H  0.37335678  0.77181691  0.38374819     0.08500
H617        H  0.38821610  0.81373106  0.39081324     0.07600
N618        N  0.33773117  0.78614765  0.34402277    -0.36300
N619        N  0.33334218  0.79711511  0.33670539    -0.28400
C620        C  0.32481359  0.79268084  0.32634674    -0.03700
C621        C  0.32370121  0.77817084  0.32707006     0.04900
C622        C  0.33205278  0.77443124  0.33847275     0.03000
H623        H  0.31982484  0.79962230  0.31886233     0.08100
H624        H  0.33409744  0.76395879  0.34236695     0.07000
N625        N  0.34508217  0.01599846  0.34897280    -0.27400
N626        N  0.35553610  0.01404014  0.35789168    -0.35300
C627        C  0.35820659  0.00022314  0.35892776     0.00900
C628        C  0.34897387  0.99300272  0.35022513     0.06900
C629        C  0.34078746  0.00342992  0.34408795    -0.06200
H630        H  0.36622299  0.99584255  0.36568535     0.07600
H631        H  0.33237180  0.00206661  0.33656640     0.08800
Cu632      Cu  0.36557122  0.03020577  0.36845821     0.44200
Cu633      Cu  0.33746991  0.03582812  0.34394773     0.42000
Cu634      Cu  0.35391568  0.06567258  0.36214141     0.43900
N635        N  0.37394224  0.04758507  0.37853293    -0.34800
N636        N  0.36972600  0.06062552  0.37636883    -0.29100
C637        C  0.37736730  0.06931905  0.38453828    -0.05200
C638        C  0.38686720  0.06133590  0.39225579     0.07000
C639        C  0.38431838  0.04759557  0.38809964     0.00800
H640        H  0.37604429  0.08059947  0.38481078     0.08500
H641        H  0.38967859  0.03820858  0.39158764     0.07600
N642        N  0.33849419  0.06752579  0.34674627    -0.36300
N643        N  0.33258906  0.05677763  0.34020056    -0.28400
C644        C  0.32346572  0.06168502  0.33058007    -0.03700
C645        C  0.32359415  0.07626292  0.33101322     0.04900
C646        C  0.33326250  0.07954023  0.34145438     0.03000
H647        H  0.31730622  0.05503444  0.32372399     0.08100
H648        H  0.33654486  0.08988244  0.34482155     0.07000
N649        N  0.91207921  0.27194578  0.34436762    -0.27400
N650        N  0.91407728  0.28317688  0.35226504    -0.35300
C651        C  0.92789858  0.28594033  0.35298769     0.00900
C652        C  0.93501981  0.27593011  0.34515570     0.06900
C653        C  0.92461122  0.26719948  0.33985552    -0.06200
H654        H  0.93237224  0.29451223  0.35896825     0.07600
H655        H  0.92596863  0.25816337  0.33308990     0.08800
Cu656      Cu  0.89798059  0.29403595  0.36191579     0.44200
Cu657      Cu  0.89230920  0.26401505  0.34000815     0.42000
Cu658      Cu  0.86241185  0.28250411  0.35598302     0.43900
N659        N  0.88071928  0.30293827  0.37156887    -0.34800
N660        N  0.86761900  0.29879772  0.36958244    -0.29100
C661        C  0.85908579  0.30651788  0.37784707    -0.05200
C662        C  0.86725869  0.31599145  0.38542287     0.07000
C663        C  0.88092807  0.31333433  0.38108556     0.00800
H664        H  0.84780520  0.30518061  0.37835669     0.08500
H665        H  0.89047084  0.31832733  0.38470742     0.07600
N666        N  0.86063465  0.26585441  0.34193317    -0.36300
N667        N  0.87143083  0.25915015  0.33629991    -0.28400
C668        C  0.86662151  0.24923126  0.32747277    -0.03700
C669        C  0.85203887  0.24965599  0.32746151     0.04900
C670        C  0.84866174  0.26035614  0.33681194     0.03000
H671        H  0.87336734  0.24242028  0.32136461     0.08100
H672        H  0.83829925  0.26410855  0.33959317     0.07000
N673        N  0.08998525  0.27393114  0.34554097    -0.27400
N674        N  0.08760627  0.28341839  0.35538718    -0.35300
C675        C  0.07367521  0.28509910  0.35690965     0.00900
C676        C  0.06687392  0.27622610  0.34753992     0.06900
C677        C  0.07761635  0.26929359  0.34050600    -0.06200
H678        H  0.06894798  0.29245987  0.36416920     0.07600
H679        H  0.07661014  0.26148961  0.33230037     0.08800
Cu680      Cu  0.10335172  0.29395137  0.36605044     0.44200
Cu681      Cu  0.10996875  0.26824787  0.33920370     0.42000
Cu682      Cu  0.13916481  0.28708906  0.35580819     0.43900
N683        N  0.12052032  0.30358271  0.37528875    -0.34800
N684        N  0.13368989  0.30124444  0.37153897    -0.29100
C685        C  0.14221595  0.30924366  0.37953196    -0.05200
C686        C  0.13399183  0.31697918  0.38881436     0.07000
C687        C  0.12028180  0.31306289  0.38574557     0.00800
H688        H  0.15355849  0.30928845  0.37869361     0.08500
H689        H  0.11073719  0.31689645  0.39059900     0.07600
N690        N  0.14149356  0.27193019  0.34023419    -0.36300
N691        N  0.13091226  0.26513164  0.33431225    -0.28400
C692        C  0.13600563  0.25598889  0.32483208    -0.03700
C693        C  0.15053954  0.25700706  0.32474308     0.04900
C694        C  0.15362262  0.26724408  0.33467044     0.03000
H695        H  0.12952968  0.24897562  0.31865408     0.08100
H696        H  0.16390156  0.27107390  0.33766687     0.07000
N697        N  0.34568462  0.27215194  0.91152208    -0.27400
N698        N  0.35579010  0.28146388  0.91347026    -0.35300
C699        C  0.35799558  0.28312363  0.92730898     0.00900
C700        C  0.34880698  0.27444575  0.93457255     0.06900
C701        C  0.34117229  0.26759825  0.92415607    -0.06200
H702        H  0.36573461  0.29021749  0.93166207     0.07600
H703        H  0.33277875  0.26006667  0.92559328     0.08800
Cu704      Cu  0.36582465  0.29203015  0.89739066     0.44200
Cu705      Cu  0.33849146  0.26664209  0.89162602     0.42000
Cu706      Cu  0.35419665  0.28590141  0.86199666     0.43900
N707        N  0.37397019  0.30244643  0.88018334    -0.34800
N708        N  0.36969141  0.30038476  0.86713539    -0.29100
C709        C  0.37699788  0.30890873  0.85851373    -0.05200
C710        C  0.38636779  0.31671070  0.86655870     0.07000
C711        C  0.38408156  0.31228163  0.88026176     0.00800
H712        H  0.37565867  0.30923969  0.84722294     0.08500
H713        H  0.38924925  0.31596684  0.88969662     0.07600
N714        N  0.33896260  0.27039514  0.85995462    -0.36300
N715        N  0.33341421  0.26336901  0.87060237    -0.28400
C716        C  0.32424297  0.25387484  0.86554013    -0.03700
C717        C  0.32394514  0.25495014  0.85099136     0.04900
C718        C  0.33341759  0.26558202  0.84786335     0.03000
H719        H  0.31822336  0.24675338  0.87204695     0.08100
H720        H  0.33633086  0.26939362  0.83754971     0.07000
N721        N  0.34952688  0.26908845  0.09011475    -0.27400
N722        N  0.36032930  0.27758740  0.08826195    -0.35300
C723        C  0.36227586  0.27962463  0.07441434     0.00900
C724        C  0.35215598  0.27202840  0.06711280     0.06900
C725        C  0.34427978  0.26545191  0.07750423    -0.06200
H726        H  0.37038163  0.28631898  0.07009692     0.07600
H727        H  0.33524202  0.25870214  0.07611994     0.08800
Cu728      Cu  0.37124081  0.28663586  0.10476673     0.44200
Cu729      Cu  0.34226974  0.26340393  0.10978808     0.42000
Cu730      Cu  0.35813481  0.28083464  0.14017403     0.43900
N731        N  0.37936107  0.29629566  0.12249201    -0.34800
N732        N  0.37443812  0.29459544  0.13538499    -0.29100
C733        C  0.38162893  0.30305775  0.14418358    -0.05200
C734        C  0.39160782  0.31037564  0.13643025     0.07000
C735        C  0.38981619  0.30576360  0.12273053     0.00800
H736        H  0.37970629  0.30380316  0.15537516     0.08500
H737        H  0.39538180  0.30932228  0.11346835     0.07600
N738        N  0.34254843  0.26555616  0.14148219    -0.36300
N739        N  0.33693010  0.25925602  0.13044289    -0.28400
C740        C  0.32761016  0.24961388  0.13484850    -0.03700
C741        C  0.32728285  0.24975161  0.14942728     0.04900
C742        C  0.33691347  0.26005841  0.15323584     0.03000
H743        H  0.32172225  0.24287866  0.12784093     0.08100
H744        H  0.33979581  0.26329152  0.16374727     0.07000
N745        N  0.15281954  0.33738779  0.15575720    -0.27400
N746        N  0.14286044  0.33948399  0.14631934    -0.35300
C747        C  0.14116883  0.35336528  0.14440523     0.00900
C748        C  0.15054724  0.36045762  0.15306182     0.06900
C749        C  0.15776800  0.34990431  0.16010584    -0.06200
H750        H  0.13375335  0.35786839  0.13706574     0.07600
H751        H  0.16600262  0.35114778  0.16784475     0.08800
Cu752      Cu  0.13217928  0.32335235  0.13631916     0.44200
Cu753      Cu  0.15907045  0.31749734  0.16208949     0.42000
Cu754      Cu  0.14078269  0.28764804  0.14604589     0.43900
N755        N  0.12278149  0.30582701  0.12744010    -0.34800
N756        N  0.12580514  0.29274319  0.13093724    -0.29100
C757        C  0.11791068  0.28397638  0.12310007    -0.05200
C758        C  0.10948105  0.29193585  0.11419807     0.07000
C759        C  0.11293336  0.30576000  0.11732296     0.00800
H760        H  0.11835398  0.27265189  0.12386096     0.08500
H761        H  0.10875886  0.31518349  0.11255513     0.07600
N762        N  0.15653314  0.28581370  0.16112756    -0.36300
N763        N  0.16315254  0.29661828  0.16683372    -0.28400
C764        C  0.17272410  0.29183500  0.17606162    -0.03700
C765        C  0.17217281  0.27726532  0.17625153     0.04900
C766        C  0.16173735  0.27386463  0.16660503     0.03000
H767        H  0.17950761  0.29857937  0.18219705     0.08100
H768        H  0.15818690  0.26348746  0.16364278     0.07000
N769        N  0.15938402  0.51566644  0.14947879    -0.27400
N770        N  0.14814998  0.51369528  0.14158150    -0.35300
C771        C  0.14569393  0.49986248  0.14037010     0.00900
C772        C  0.15587699  0.49264978  0.14792309     0.06900
C773        C  0.16441243  0.50308802  0.15354801    -0.06200
H774        H  0.13708332  0.49547665  0.13438302     0.07600
H775        H  0.17346265  0.50172137  0.16029294     0.08800
Cu776      Cu  0.13662494  0.52993070  0.13293139     0.44200
Cu777      Cu  0.16669208  0.53557022  0.15442902     0.42000
Cu778      Cu  0.14706846  0.56570736  0.13981576     0.43900
N779        N  0.12673280  0.54720282  0.12426935    -0.34800
N780        N  0.13048488  0.56036612  0.12654379    -0.29100
C781        C  0.12221395  0.56884880  0.11877424    -0.05200
C782        C  0.11280582  0.56058111  0.11119944     0.07000
C783        C  0.11604541  0.54691203  0.11507289     0.00800
H784        H  0.12321237  0.58016117  0.11849407     0.08500
H785        H  0.11122382  0.53731926  0.11136970     0.07600
N786        N  0.16387635  0.56731061  0.15377841    -0.36300
N787        N  0.17096844  0.55646774  0.15882488    -0.28400
C788        C  0.18079363  0.56114353  0.16783652    -0.03700
C789        C  0.17985549  0.57563718  0.16863111     0.04900
C790        C  0.16900817  0.57917004  0.15953372     0.03000
H791        H  0.18776360  0.55437499  0.17373546     0.08100
H792        H  0.16500248  0.58957069  0.15732557     0.07000
N793        N  0.40934742  0.08261589  0.15142501    -0.27400
N794        N  0.41146071  0.07365980  0.14104477    -0.35300
C795        C  0.42532733  0.07247570  0.13867882     0.00900
C796        C  0.43240939  0.08111107  0.14807137     0.06900
C797        C  0.42185710  0.08740498  0.15598680    -0.06200
H798        H  0.42982200  0.06570843  0.13072736     0.07600
H799        H  0.42310927  0.09472711  0.16459327     0.08800
Cu800      Cu  0.39539532  0.06306640  0.13099516     0.44200
Cu801      Cu  0.38940579  0.08740444  0.15876586     0.42000
Cu802      Cu  0.35948973  0.06993331  0.14150025     0.43900
N803        N  0.37819327  0.05281663  0.12260367    -0.34800
N804        N  0.36499698  0.05534335  0.12616318    -0.29100
C805        C  0.35653115  0.04682196  0.11864758    -0.05200
C806        C  0.36486448  0.03846050  0.11005813     0.07000
C807        C  0.37852215  0.04260400  0.11288078     0.00800
H808        H  0.34519406  0.04656784  0.11957362     0.08500
H809        H  0.38806142  0.03861100  0.10813626     0.07600
N810        N  0.35767146  0.08453818  0.15769092    -0.36300
N811        N  0.36848441  0.09070215  0.16388808    -0.28400
C812        C  0.36370595  0.09951114  0.17383311    -0.03700
C813        C  0.34913125  0.09895923  0.17399086     0.04900
C814        C  0.34571250  0.08930180  0.16357205     0.03000
H815        H  0.37047694  0.10586027  0.18039152     0.08100
H816        H  0.33532330  0.08598742  0.16036061     0.07000
N817        N  0.58781817  0.08082360  0.15533396    -0.27400
N818        N  0.58570075  0.07067859  0.14610064    -0.35300
C819        C  0.57181668  0.06878607  0.14438987     0.00900
C820        C  0.56473155  0.07822379  0.15295496     0.06900
C821        C  0.57527882  0.08571054  0.15974298    -0.06200
H822        H  0.56729306  0.06124466  0.13718555     0.07600
H823        H  0.57399683  0.09407795  0.16733419     0.08800
Cu824      Cu  0.60171767  0.06008997  0.13590091     0.44200
Cu825      Cu  0.60780393  0.08736592  0.16116746     0.42000
Cu826      Cu  0.63748773  0.07010574  0.14338490     0.43900
N827        N  0.61898063  0.05091398  0.12637952    -0.34800
N828        N  0.63214504  0.05447915  0.12902332    -0.29100
C829        C  0.64072647  0.04656913  0.12098761    -0.05200
C830        C  0.63253291  0.03763665  0.11283296     0.07000
C831        C  0.61879665  0.04073019  0.11660632     0.00800
H832        H  0.65206637  0.04746930  0.12092110     0.08500
H833        H  0.60928751  0.03594994  0.11259947     0.07600
N834        N  0.63954201  0.08550775  0.15881019    -0.36300
N835        N  0.62882810  0.09164281  0.16521544    -0.28400
C836        C  0.63379347  0.10076317  0.17479990    -0.03700
C837        C  0.64837857  0.10041955  0.17449848     0.04900
C838        C  0.65160709  0.09059814  0.16417661     0.03000
H839        H  0.62716493  0.10700580  0.18160813     0.08100
H840        H  0.66194416  0.08729520  0.16078316     0.07000
N841        N  0.41037055  0.07690518  0.84124959    -0.27400
N842        N  0.41219387  0.06728323  0.85107511    -0.35300
C843        C  0.42600520  0.06479526  0.85257947     0.00900
C844        C  0.43329833  0.07326654  0.84320718     0.06900
C845        C  0.42297813  0.08083277  0.83622275    -0.06200
H846        H  0.43031448  0.05731950  0.85997137     0.07600
H847        H  0.42441149  0.08845235  0.82791241     0.08800
Cu848      Cu  0.39586431  0.05777659  0.86179165     0.44200
Cu849      Cu  0.39082310  0.08384689  0.83487816     0.42000
Cu850      Cu  0.36057647  0.06759145  0.85185805     0.43900
N851        N  0.37802185  0.04971674  0.87121428    -0.34800
N852        N  0.36506365  0.05316013  0.86758629    -0.29100
C853        C  0.35595904  0.04602087  0.87573790    -0.05200
C854        C  0.36357413  0.03771734  0.88499699     0.07000
C855        C  0.37754185  0.04036228  0.88176536     0.00800
H856        H  0.34463559  0.04695493  0.87503823     0.08500
H857        H  0.38674325  0.03573455  0.88656582     0.07600
N858        N  0.35918968  0.08275641  0.83623397    -0.36300
N859        N  0.37019082  0.08866742  0.83014692    -0.28400
C860        C  0.36572122  0.09812952  0.82067727    -0.03700
C861        C  0.35113475  0.09825241  0.82075104     0.04900
C862        C  0.34740182  0.08831845  0.83078454     0.03000
H863        H  0.37268998  0.10445829  0.81430743     0.08100
H864        H  0.33692346  0.08530886  0.83400569     0.07000
N865        N  0.58812531  0.07713186  0.84121999    -0.27400
N866        N  0.58604059  0.06737734  0.85087447    -0.35300
C867        C  0.57221240  0.06482649  0.85199182     0.00900
C868        C  0.56516900  0.07338485  0.84256455     0.06900
C869        C  0.57561855  0.08111136  0.83594530    -0.06200
H870        H  0.56769026  0.05725266  0.85916690     0.07600
H871        H  0.57430790  0.08879993  0.82767377     0.08800
Cu872      Cu  0.60194445  0.05750563  0.86181811     0.44200
Cu873      Cu  0.60796878  0.08394597  0.83540718     0.42000
Cu874      Cu  0.63747523  0.06565647  0.85200023     0.43900
N875        N  0.61925834  0.04838934  0.87117313    -0.34800
N876        N  0.63235904  0.05127065  0.86757617    -0.29100
C877        C  0.64111435  0.04371551  0.87571418    -0.05200
C878        C  0.63310726  0.03564342  0.88486957     0.07000
C879        C  0.61928061  0.03891875  0.88163610     0.00800
H880        H  0.65245514  0.04404658  0.87492139     0.08500
H881        H  0.60986932  0.03488593  0.88659230     0.07600
N882        N  0.63959952  0.08164656  0.83731286    -0.36300
N883        N  0.62893252  0.08834306  0.83145265    -0.28400
C884        C  0.63395154  0.09832866  0.82281605    -0.03700
C885        C  0.64853500  0.09796778  0.82321270     0.04900
C886        C  0.65169354  0.08720114  0.83254228     0.03000
H887        H  0.62736051  0.10536795  0.81681303     0.08100
H888        H  0.66199221  0.08361440  0.83573569     0.07000
N889        N  0.41138393  0.77460231  0.15485387    -0.27400
N890        N  0.41359455  0.78390875  0.14481082    -0.35300
C891        C  0.42744670  0.78486006  0.14231592     0.00900
C892        C  0.43442809  0.77565902  0.15121646     0.06900
C893        C  0.42382735  0.76933714  0.15904704    -0.06200
H894        H  0.43198129  0.79180499  0.13454836     0.07600
H895        H  0.42497566  0.76144232  0.16713882     0.08800
Cu896      Cu  0.39772622  0.79466359  0.13465638     0.44200
Cu897      Cu  0.39140833  0.76968613  0.16200951     0.42000
Cu898      Cu  0.36184240  0.78737789  0.14442449     0.43900
N899        N  0.38060260  0.80372337  0.12487881    -0.34800
N900        N  0.36739057  0.80114453  0.12830368    -0.29100
C901        C  0.35893180  0.80856544  0.11970287    -0.05200
C902        C  0.36725544  0.81616545  0.11037312     0.07000
C903        C  0.38094703  0.81278148  0.11407025     0.00800
H904        H  0.34757286  0.80828937  0.12015940     0.08500
H905        H  0.39055963  0.81658768  0.10933656     0.07600
N906        N  0.35973061  0.77286145  0.16071081    -0.36300
N907        N  0.37042455  0.76659092  0.16700408    -0.28400
C908        C  0.36546420  0.75770521  0.17679816    -0.03700
C909        C  0.35090106  0.75830469  0.17672838     0.04900
C910        C  0.34766495  0.76806709  0.16636258     0.03000
H911        H  0.37206579  0.75106759  0.18323774     0.08100
H912        H  0.33732139  0.77143033  0.16305995     0.07000
N913        N  0.58949562  0.77368041  0.15495266    -0.27400
N914        N  0.58742477  0.78228690  0.14427356    -0.35300
C915        C  0.57358653  0.78332000  0.14175042     0.00900
C916        C  0.56651363  0.77494898  0.15133783     0.06900
C917        C  0.57696973  0.76901309  0.15959447    -0.06200
H918        H  0.56906868  0.78982156  0.13359246     0.07600
H919        H  0.57563816  0.76165527  0.16816069     0.08800
Cu920      Cu  0.60344431  0.79233238  0.13371591     0.44200
Cu921      Cu  0.60941090  0.76855690  0.16203291     0.42000
Cu922      Cu  0.63920771  0.78581484  0.14438011     0.43900
N923        N  0.62056061  0.80230182  0.12495622    -0.34800
N924        N  0.63370930  0.80021356  0.12890856    -0.29100
C925        C  0.64216756  0.80858520  0.12123734    -0.05200
C926        C  0.63389491  0.81623639  0.11196041     0.07000
C927        C  0.62025552  0.81194450  0.11467833     0.00800
H928        H  0.65349470  0.80890425  0.12223005     0.08500
H929        H  0.61071895  0.81564967  0.10971644     0.07600
N930        N  0.64113106  0.77040452  0.15974682    -0.36300
N931        N  0.63036172  0.76428736  0.16607193    -0.28400
C932        C  0.63520900  0.75470821  0.17522354    -0.03700
C933        C  0.64977478  0.75471290  0.17470493     0.04900
C934        C  0.65313385  0.76484600  0.16474918     0.03000
H935        H  0.62850563  0.74826760  0.18176682     0.08100
H936        H  0.66350493  0.76790266  0.16122355     0.07000
N937        N  0.84628897  0.33710298  0.15267412    -0.27400
N938        N  0.85523404  0.33877790  0.14218264    -0.35300
C939        C  0.85758496  0.35255603  0.14028406     0.00900
C940        C  0.84973517  0.36001554  0.15007375     0.06900
C941        C  0.84267465  0.34979392  0.15774115    -0.06200
H942        H  0.86451087  0.35673375  0.13229364     0.07600
H943        H  0.83553872  0.35136583  0.16645945     0.08800
Cu944      Cu  0.86407029  0.32231125  0.13102830     0.44200
Cu945      Cu  0.83967498  0.31757932  0.15957468     0.42000
Cu946      Cu  0.85475585  0.28719143  0.14144258     0.43900
N947        N  0.87226676  0.30446218  0.12165611    -0.34800
N948        N  0.86897401  0.29154327  0.12549732    -0.29100
C949        C  0.87639805  0.28239113  0.11766545    -0.05200
C950        C  0.88480515  0.28992308  0.10839735     0.07000
C951        C  0.88184028  0.30390716  0.11128141     0.00800
H952        H  0.87572001  0.27110210  0.11873878     0.08500
H953        H  0.88648911  0.31309104  0.10646563     0.07600
N954        N  0.84015599  0.28591886  0.15759084    -0.36300
N955        N  0.83473053  0.29690816  0.16413156    -0.28400
C956        C  0.82549509  0.29242854  0.17383582    -0.03700
C957        C  0.82501220  0.27787029  0.17342246     0.04900
C958        C  0.83450410  0.27414851  0.16296894     0.03000
H959        H  0.81957939  0.29937113  0.18062032     0.08100
H960        H  0.83707178  0.26369361  0.15934245     0.07000
N961        N  0.84508673  0.51556374  0.15384898    -0.27400
N962        N  0.85326833  0.51401863  0.14273176    -0.35300
C963        C  0.85552808  0.50028514  0.14050144     0.00900
C964        C  0.84840889  0.49267529  0.15070530     0.06900
C965        C  0.84190009  0.50278429  0.15901417    -0.06200
H966        H  0.86204214  0.49625229  0.13209896     0.07600
H967        H  0.83527275  0.50105603  0.16809651     0.08800
Cu968      Cu  0.86143026  0.53051795  0.13120568     0.44200
Cu969      Cu  0.83884044  0.53511365  0.16120705     0.42000
Cu970      Cu  0.85460166  0.56548485  0.14312806     0.43900
N971        N  0.87020286  0.54811492  0.12198404    -0.34800
N972        N  0.86803925  0.56104507  0.12652044    -0.29100
C973        C  0.87590848  0.56996814  0.11884301    -0.05200
C974        C  0.88336504  0.56224235  0.10893858     0.07000
C975        C  0.87941568  0.54841894  0.11128740     0.00800
H976        H  0.87620915  0.58121458  0.12044356     0.08500
H977        H  0.88328532  0.53914560  0.10597160     0.07600
N978        N  0.83997285  0.56683719  0.15927162    -0.36300
N979        N  0.83426111  0.55594501  0.16574684    -0.28400
C980        C  0.82500127  0.56062986  0.17535401    -0.03700
C981        C  0.82482277  0.57520273  0.17494215     0.04900
C982        C  0.83449644  0.57871520  0.16459233     0.03000
H983        H  0.81875908  0.55382845  0.18198833     0.08100
H984        H  0.83739983  0.58911863  0.16107599     0.07000
N985        N  0.84515822  0.07783961  0.40987415    -0.27400
N986        N  0.85575844  0.06912195  0.41188016    -0.35300
C987        C  0.85756903  0.06716559  0.42575206     0.00900
C988        C  0.84759658  0.07505615  0.43291654     0.06900
C989        C  0.83991634  0.08170076  0.42243410    -0.06200
H990        H  0.86566530  0.06055036  0.43020441     0.07600
H991        H  0.83111913  0.08877620  0.42374971     0.08800
Cu992      Cu  0.86720811  0.06033939  0.39561139     0.44200
Cu993      Cu  0.83868086  0.08412368  0.39006456     0.42000
Cu994      Cu  0.85834268  0.07037163  0.35991187     0.43900
N995        N  0.87711857  0.05234652  0.37797556    -0.34800
N996        N  0.87400911  0.05586360  0.36489934    -0.29100
C997        C  0.88237733  0.04855065  0.35609683    -0.05200
C998        C  0.89117835  0.03998730  0.36403864     0.07000
C999        C  0.88746940  0.04276692  0.37787498     0.00800
H1000       H  0.88193885  0.04934790  0.34475996     0.08500
H1001       H  0.89190199  0.03822056  0.38729886     0.07600
N1002       N  0.84210367  0.08504713  0.35843888    -0.36300
N1003       N  0.83494606  0.08981486  0.36937305    -0.28400
C1004       C  0.82533207  0.09915054  0.36491299    -0.03700
C1005       C  0.82643444  0.10044244  0.35043023     0.04900
C1006       C  0.83721574  0.09130116  0.34671678     0.03000
H1007       H  0.81826023  0.10476041  0.37183020     0.08100
H1008       H  0.84124073  0.08927202  0.33627246     0.07000
N1009       N  0.84495719  0.08008914  0.58832926    -0.27400
N1010       N  0.85452106  0.07022670  0.58645068    -0.35300
C1011       C  0.85593898  0.06765197  0.57265920     0.00900
C1012       C  0.84682525  0.07635520  0.56535010     0.06900
C1013       C  0.83999997  0.08410668  0.57569696    -0.06200
H1014       H  0.86308435  0.05991383  0.56838816     0.07600
H1015       H  0.83208441  0.09212583  0.57422636     0.08800
Cu1016     Cu  0.86527927  0.06070063  0.60261716     0.44200
Cu1017     Cu  0.83925400  0.08707846  0.60817569     0.42000
Cu1018     Cu  0.85593355  0.06903181  0.63821272     0.43900
N1019       N  0.87506433  0.05204396  0.61985571    -0.34800
N1020       N  0.87156142  0.05475426  0.63302334    -0.29100
C1021       C  0.87987770  0.04718658  0.64162206    -0.05200
C1022       C  0.88913005  0.03948019  0.63338614     0.07000
C1023       C  0.88572184  0.04283499  0.61965828     0.00800
H1024       H  0.87935080  0.04745048  0.65298679     0.08500
H1025       H  0.89046510  0.03873798  0.61015885     0.07600
N1026       N  0.84066370  0.08450152  0.63993204    -0.36300
N1027       N  0.83482495  0.09106493  0.62915918    -0.28400
C1028       C  0.82555428  0.10053200  0.63403596    -0.03700
C1029       C  0.82548815  0.09996307  0.64861841     0.04900
C1030       C  0.83523976  0.08963464  0.65193785     0.03000
H1031       H  0.81939789  0.10733420  0.62733764     0.08100
H1032       H  0.83829005  0.08606447  0.66228861     0.07000
N1033       N  0.15256486  0.77081111  0.41084563    -0.27400
N1034       N  0.14252713  0.78020399  0.41269433    -0.35300
C1035       C  0.14157783  0.78335534  0.42642496     0.00900
C1036       C  0.15153954  0.77555970  0.43367501     0.06900
C1037       C  0.15829822  0.76769535  0.42338881    -0.06200
H1038       H  0.13411309  0.79077746  0.43071674     0.07600
H1039       H  0.16687199  0.76037368  0.42480615     0.08800
Cu1040     Cu  0.13085076  0.78855761  0.39644363     0.44200
Cu1041     Cu  0.15808334  0.76317824  0.39120832     0.42000
Cu1042     Cu  0.13976575  0.77874022  0.36097424     0.43900
N1043       N  0.12087342  0.79651798  0.37891355    -0.34800
N1044       N  0.12409949  0.79315444  0.36582996    -0.29100
C1045       C  0.11590274  0.80063482  0.35703392    -0.05200
C1046       C  0.10706859  0.80911839  0.36502133     0.07000
C1047       C  0.11059259  0.80615010  0.37885011     0.00800
H1048       H  0.11645269  0.79997730  0.34569076     0.08500
H1049       H  0.10631397  0.81084778  0.38827923     0.07600
N1050       N  0.15568256  0.76385856  0.35950861    -0.36300
N1051       N  0.16217540  0.75816880  0.37039976    -0.28400
C1052       C  0.17191634  0.74906904  0.36571352    -0.03700
C1053       C  0.17162320  0.74899098  0.35112043     0.04900
C1054       C  0.16114598  0.75852812  0.34761168     0.03000
H1055       H  0.17875262  0.74308085  0.37253369     0.08100
H1056       H  0.15773268  0.76154547  0.33719954     0.07000
N1057       N  0.15899153  0.77931512  0.58886651    -0.27400
N1058       N  0.14965052  0.78938355  0.58689923    -0.35300
C1059       C  0.14790797  0.79141433  0.57303235     0.00900
C1060       C  0.15656656  0.78213783  0.56582499     0.06900
C1061       C  0.16346487  0.77465170  0.57628002    -0.06200
H1062       H  0.14077172  0.79907470  0.56862103     0.07600
H1063       H  0.17100610  0.76625917  0.57492552     0.08800
Cu1064     Cu  0.13928646  0.79954892  0.60310577     0.44200
Cu1065     Cu  0.16490658  0.77229461  0.60861750     0.42000
Cu1066     Cu  0.14776662  0.78889711  0.63861180     0.43900
N1067       N  0.12956124  0.80764803  0.62080921    -0.34800
N1068       N  0.13259199  0.80381418  0.63380812    -0.29100
C1069       C  0.12417037  0.81083035  0.64275984    -0.05200
C1070       C  0.11534941  0.81951953  0.63501751     0.07000
C1071       C  0.11915252  0.81716743  0.62111431     0.00800
H1072       H  0.12441105  0.80951665  0.65405256     0.08500
H1073       H  0.11468030  0.82187950  0.61179101     0.07600
N1074       N  0.16307857  0.77343867  0.64030446    -0.36300
N1075       N  0.16926619  0.76742137  0.62940482    -0.28400
C1076       C  0.17865582  0.75796002  0.63407757    -0.03700
C1077       C  0.17841378  0.75796531  0.64866525     0.04900
C1078       C  0.16836290  0.76793605  0.65220778     0.03000
H1079       H  0.18508646  0.75150429  0.62727293     0.08100
H1080       H  0.16516764  0.77111589  0.66265217     0.07000
N1081       N  0.84460899  0.33644464  0.84871008    -0.27400
N1082       N  0.85551180  0.33841890  0.85706509    -0.35300
C1083       C  0.85804591  0.35225462  0.85818343     0.00900
C1084       C  0.84823408  0.35940700  0.85011530     0.06900
C1085       C  0.83985835  0.34898754  0.84428262    -0.06200
H1086       H  0.86641489  0.35670439  0.86446680     0.07600
H1087       H  0.83112096  0.35033868  0.83713312     0.08800
Cu1088     Cu  0.86650209  0.32214407  0.86629091     0.44200
Cu1089     Cu  0.83724103  0.31668980  0.84344288     0.42000
Cu1090     Cu  0.85632915  0.28645596  0.85742331     0.43900
N1091       N  0.87610245  0.30445542  0.87440178    -0.34800
N1092       N  0.87249492  0.29141112  0.87129442    -0.29100
C1093       C  0.88074351  0.28254371  0.87861780    -0.05200
C1094       C  0.89002014  0.29041633  0.88669495     0.07000
C1095       C  0.88670513  0.30426723  0.88370607     0.00800
H1096       H  0.88001548  0.27121855  0.87805053     0.08500
H1097       H  0.89143005  0.31361222  0.88812689     0.07600
N1098       N  0.83940883  0.28501318  0.84363505    -0.36300
N1099       N  0.83247806  0.29600804  0.83874831    -0.28400
C1100       C  0.82226367  0.29157899  0.83006645    -0.03700
C1101       C  0.82270141  0.27703234  0.82935665     0.04900
C1102       C  0.83375565  0.27326768  0.83814865     0.03000
H1103       H  0.81519162  0.29857158  0.82457889     0.08100
H1104       H  0.83754983  0.26279931  0.84038327     0.07000
N1105       N  0.84515086  0.51461234  0.84502923    -0.27400
N1106       N  0.85320342  0.51275526  0.85618588    -0.35300
C1107       C  0.85451436  0.49893692  0.85868992     0.00900
C1108       C  0.84693074  0.49165019  0.84859504     0.06900
C1109       C  0.84113645  0.50198118  0.84008330    -0.06200
H1110       H  0.86079508  0.49457546  0.86710367     0.07600
H1111       H  0.83444916  0.50048761  0.83100595     0.08800
Cu1112     Cu  0.86253764  0.52902309  0.86718716     0.44200
Cu1113     Cu  0.84023830  0.53434965  0.83725113     0.42000
Cu1114     Cu  0.85650224  0.56442235  0.85527316     0.43900
N1115       N  0.87213695  0.54641858  0.87602914    -0.34800
N1116       N  0.87010365  0.55945170  0.87173222    -0.29100
C1117       C  0.87841772  0.56808613  0.87929820    -0.05200
C1118       C  0.88612370  0.56006934  0.88880930     0.07000
C1119       C  0.88174288  0.54637111  0.88637181     0.00800
H1120       H  0.87898349  0.57932256  0.87773498     0.08500
H1121       H  0.88536469  0.53692156  0.89152174     0.07600
N1122       N  0.84249980  0.56605302  0.83847511    -0.36300
N1123       N  0.83669654  0.55519805  0.83201626    -0.28400
C1124       C  0.82795611  0.55991041  0.82196067    -0.03700
C1125       C  0.82817970  0.57448682  0.82201919     0.04900
C1126       C  0.83758281  0.57796226  0.83265606     0.03000
H1127       H  0.82178866  0.55311578  0.81525660     0.08100
H1128       H  0.84047833  0.58836521  0.83618282     0.07000
N1129       N  0.84737596  0.77313364  0.40900931    -0.27400
N1130       N  0.85502587  0.78448915  0.41124313    -0.35300
C1131       C  0.85565659  0.78694057  0.42515498     0.00900
C1132       C  0.84801849  0.77658653  0.43207672     0.06900
C1133       C  0.84290924  0.76804170  0.42140847    -0.06200
H1134       H  0.86139408  0.79558162  0.42979726     0.07600
H1135       H  0.83659355  0.75865860  0.42247748     0.08800
Cu1136     Cu  0.86466977  0.79568092  0.39521820     0.44200
Cu1137     Cu  0.84369361  0.76489024  0.38924348     0.42000
Cu1138     Cu  0.86009480  0.78236658  0.35962470     0.43900
N1139       N  0.87404868  0.80440583  0.37757612    -0.34800
N1140       N  0.87248855  0.79954549  0.36465051    -0.29100
C1141       C  0.88024534  0.80738378  0.35579772    -0.05200
C1142       C  0.88705799  0.81772908  0.36350956     0.07000
C1143       C  0.88282755  0.81545474  0.37729878     0.00800
H1144       H  0.88085360  0.80558050  0.34458440     0.08500
H1145       H  0.88602388  0.82119974  0.38657353     0.07600
N1146       N  0.84688838  0.76516551  0.35771506    -0.36300
N1147       N  0.84098810  0.75880307  0.36855634    -0.28400
C1148       C  0.83258883  0.74848901  0.36385029    -0.03700
C1149       C  0.83313188  0.74831518  0.34926719     0.04900
C1150       C  0.84238058  0.75906526  0.34578475     0.03000
H1151       H  0.82629451  0.74190992  0.37064931     0.08100
H1152       H  0.84535568  0.76254806  0.33537928     0.07000
N1153       N  0.84561581  0.76870085  0.58722115    -0.27400
N1154       N  0.85581515  0.77786614  0.58507608    -0.35300
C1155       C  0.85716824  0.78014232  0.57121496     0.00900
C1156       C  0.84731708  0.77201961  0.56418703     0.06900
C1157       C  0.84019432  0.76484613  0.57472041    -0.06200
H1158       H  0.86484759  0.78718287  0.56666217     0.07600
H1159       H  0.83157950  0.75753255  0.57346151     0.08800
Cu1160     Cu  0.86721403  0.78721476  0.60102546     0.44200
Cu1161     Cu  0.83966638  0.76230146  0.60718869     0.42000
Cu1162     Cu  0.85892905  0.77796009  0.63681651     0.43900
N1163       N  0.87679971  0.79628492  0.61827911    -0.34800
N1164       N  0.87395125  0.79292233  0.63145784    -0.29100
C1165       C  0.88186759  0.80094553  0.64004071    -0.05200
C1166       C  0.89000896  0.80985689  0.63182464     0.07000
C1167       C  0.88648760  0.80653877  0.61808506     0.00800
H1168       H  0.88147661  0.80051482  0.65140486     0.08500
H1169       H  0.89065864  0.81117725  0.60857181     0.07600
N1170       N  0.84290693  0.76320092  0.63886577    -0.36300
N1171       N  0.83597312  0.75764167  0.62817038    -0.28400
C1172       C  0.82631899  0.74859824  0.63313129    -0.03700
C1173       C  0.82714299  0.74837281  0.64769853     0.04900
C1174       C  0.83781354  0.75781425  0.65091801     0.03000
H1175       H  0.81918892  0.74271789  0.62651283     0.08100
H1176       H  0.84169937  0.76059081  0.66123726     0.07000
N1177       N  0.41008737  0.77492664  0.84183597    -0.27400
N1178       N  0.41142647  0.78649808  0.84935931    -0.35300
C1179       C  0.42504354  0.79020571  0.84978133     0.00900
C1180       C  0.43275724  0.78046258  0.84214305     0.06900
C1181       C  0.42285639  0.77090233  0.83725980    -0.06200
H1182       H  0.42899571  0.79915579  0.85556554     0.07600
H1183       H  0.42472460  0.76166737  0.83090111     0.08800
Cu1184     Cu  0.39472566  0.79623097  0.85924773     0.44200
Cu1185     Cu  0.39080162  0.76541572  0.83849522     0.42000
Cu1186     Cu  0.35983963  0.78193759  0.85507853     0.43900
N1187       N  0.37721877  0.80395036  0.86951569    -0.34800
N1188       N  0.36437378  0.79884540  0.86818235    -0.29100
C1189       C  0.35566241  0.80611992  0.87668200    -0.05200
C1190       C  0.36345625  0.81631614  0.88369018     0.07000
C1191       C  0.37708038  0.81453102  0.87882337     0.00800
H1192       H  0.34451655  0.80408094  0.87766746     0.08500
H1193       H  0.38637516  0.82027672  0.88194196     0.07600
N1194       N  0.35911243  0.76461641  0.84174009    -0.36300
N1195       N  0.37026509  0.75865779  0.83594703    -0.28400
C1196       C  0.36606601  0.74791789  0.82780140    -0.03700
C1197       C  0.35153065  0.74699688  0.82841796     0.04900
C1198       C  0.34751708  0.75779157  0.83739470     0.03000
H1199       H  0.37317243  0.74142445  0.82175544     0.08100
H1200       H  0.33694769  0.76074104  0.84036923     0.07000
N1201       N  0.58848887  0.77607114  0.84428777    -0.27400
N1202       N  0.58665936  0.78457173  0.85511449    -0.35300
C1203       C  0.57283419  0.78664103  0.85710520     0.00900
C1204       C  0.56547285  0.77909155  0.84701859     0.06900
C1205       C  0.57582358  0.77248821  0.83908236    -0.06200
H1206       H  0.56856516  0.79325764  0.86530400     0.07600
H1207       H  0.57435023  0.76570820  0.83007589     0.08800
Cu1208     Cu  0.60294633  0.79348988  0.86644409     0.44200
Cu1209     Cu  0.60821928  0.76991108  0.83723629     0.42000
Cu1210     Cu  0.63824742  0.78516105  0.85579069     0.43900
N1211       N  0.62062334  0.80236987  0.87549170    -0.34800
N1212       N  0.63360649  0.79952811  0.87145822    -0.29100
C1213       C  0.64262273  0.80729252  0.87910707    -0.05200
C1214       C  0.63492201  0.81539810  0.88847357     0.07000
C1215       C  0.62099841  0.81196421  0.88584218     0.00800
H1216       H  0.65393591  0.80693055  0.87798157     0.08500
H1217       H  0.61174916  0.81626686  0.89087445     0.07600
N1218       N  0.63988484  0.77007015  0.84019360    -0.36300
N1219       N  0.62906135  0.76467705  0.83333320    -0.28400
C1220       C  0.63380426  0.75502446  0.82415638    -0.03700
C1221       C  0.64831515  0.75421918  0.82534580     0.04900
C1222       C  0.65177371  0.76394487  0.83562636     0.03000
H1223       H  0.62709451  0.74880153  0.81740575     0.08100
H1224       H  0.66215106  0.76642694  0.83956178     0.07000
C1225       C  0.25616147  0.67006425  0.76096834     0.02100
C1226       C  0.24359536  0.66482314  0.75503387     0.02100
C1227       C  0.23769171  0.67140962  0.74305636     0.02100
C1228       C  0.24397382  0.68368745  0.73746792     0.02100
C1229       C  0.25641126  0.68906526  0.74357784     0.02100
C1230       C  0.26232866  0.68239308  0.75544705     0.02100
C1231       C  0.73748592  0.68274701  0.75762624     0.02100
C1232       C  0.74291752  0.68900758  0.74523563     0.02100
C1233       C  0.75501226  0.68333383  0.73872112     0.02100
C1234       C  0.76131901  0.67109357  0.74426669     0.02100
C1235       C  0.75590730  0.66483486  0.75659883     0.02100
C1236       C  0.74376154  0.67042078  0.76307134     0.02100
C1237       C  0.73833409  0.68402863  0.24406746     0.02100
C1238       C  0.74392173  0.67153937  0.23827063     0.02100
C1239       C  0.75617154  0.66548982  0.24411478     0.02100
C1240       C  0.76230794  0.67143041  0.25628175     0.02100
C1241       C  0.75659537  0.68383884  0.26213707     0.02100
C1242       C  0.74442220  0.68997404  0.25624692     0.02100
C1243       C  0.74464750  0.16402946  0.74417688     0.02100
C1244       C  0.75675816  0.17023921  0.73819814     0.02100
C1245       C  0.76233196  0.18270510  0.74405325     0.02100
C1246       C  0.75617003  0.18858520  0.75622988     0.02100
C1247       C  0.74413855  0.18226547  0.76224483     0.02100
C1248       C  0.73857499  0.16981383  0.75643068     0.02100
N1249       N  0.15428602  0.33850633  0.84667580    -0.27400
N1250       N  0.14623373  0.34065656  0.85778458    -0.35300
C1251       C  0.14381876  0.35448117  0.85916295     0.00900
C1252       C  0.15067268  0.36151011  0.84836445     0.06900
C1253       C  0.15723240  0.35096338  0.84066154    -0.06200
H1254       H  0.13743125  0.35896438  0.86743177     0.07600
H1255       H  0.16354277  0.35215111  0.83127386     0.08800
Cu1256     Cu  0.13826174  0.32474337  0.87022426     0.44200
Cu1257     Cu  0.16044118  0.31859700  0.84022801     0.42000
Cu1258     Cu  0.14640081  0.28907322  0.86066327     0.43900
N1259       N  0.12973071  0.30747267  0.88024230    -0.34800
N1260       N  0.13254404  0.29433604  0.87677329    -0.29100
C1261       C  0.12466519  0.28572519  0.88479529    -0.05200
C1262       C  0.11646552  0.29386404  0.89376322     0.07000
C1263       C  0.12004206  0.30761313  0.89051494     0.00800
H1264       H  0.12479907  0.27439657  0.88396927     0.08500
H1265       H  0.11566796  0.31712378  0.89493534     0.07600
N1266       N  0.15982627  0.28696892  0.84348770    -0.36300
N1267       N  0.16483037  0.29762528  0.83610043    -0.28400
C1268       C  0.17307084  0.29261643  0.82575091    -0.03700
C1269       C  0.17332484  0.27805758  0.82659052     0.04900
C1270       C  0.16476610  0.27490583  0.83801065     0.03000
H1271       H  0.17844219  0.29919097  0.81819166     0.08100
H1272       H  0.16234312  0.26462468  0.84218906     0.07000
N1273       N  0.14896419  0.51664489  0.84087202    -0.27400
N1274       N  0.13933611  0.51467281  0.85067211    -0.35300
C1275       C  0.13706238  0.50084166  0.85223288     0.00900
C1276       C  0.14570174  0.49363607  0.84293910     0.06900
C1277       C  0.15313336  0.50406864  0.83591323    -0.06200
H1278       H  0.12974203  0.49644207  0.85973980     0.07600
H1279       H  0.16092371  0.50269630  0.82773740     0.08800
Cu1280     Cu  0.12984819  0.53091316  0.86150983     0.44200
Cu1281     Cu  0.15557887  0.53654159  0.83496698     0.42000
Cu1282     Cu  0.13948095  0.56670798  0.85330551     0.43900
N1283       N  0.12141090  0.54823597  0.87150898    -0.34800
N1284       N  0.12482536  0.56139007  0.86870901    -0.29100
C1285       C  0.11725697  0.56992839  0.87712295    -0.05200
C1286       C  0.10862899  0.56171030  0.88562675     0.07000
C1287       C  0.11164414  0.54800747  0.88168560     0.00800
H1288       H  0.11798473  0.58126323  0.87696536     0.08500
H1289       H  0.10708049  0.53844379  0.88577159     0.07600
N1290       N  0.15431239  0.56832661  0.83723747    -0.36300
N1291       N  0.16010900  0.55744493  0.83079552    -0.28400
C1292       C  0.16940677  0.56212263  0.82123833    -0.03700
C1293       C  0.16953301  0.57667086  0.82159424     0.04900
C1294       C  0.15977267  0.58022167  0.83185957     0.03000
H1295       H  0.17558513  0.55534132  0.81451560     0.08100
H1296       H  0.15702018  0.59066370  0.83540699     0.07000
C1297       C  0.23738090  0.18348566  0.74381738     0.02100
C1298       C  0.24339474  0.18907964  0.75617568     0.02100
C1299       C  0.25591172  0.18322977  0.76162846     0.02100
C1300       C  0.26182027  0.17116487  0.75523000     0.02100
C1301       C  0.25549494  0.16529944  0.74311569     0.02100
C1302       C  0.24308723  0.17128227  0.73763470     0.02100
C1303       C  0.24444192  0.66553850  0.24186653     0.02100
C1304       C  0.23799368  0.67111662  0.25406886     0.02100
C1305       C  0.24328276  0.68359521  0.26020187     0.02100
C1306       C  0.25542552  0.69006808  0.25457098     0.02100
C1307       C  0.26184632  0.68447757  0.24239836     0.02100
C1308       C  0.25657384  0.67204365  0.23624941     0.02100
C1309       C  0.75655865  0.17052725  0.26155084     0.02100
C1310       C  0.74437297  0.16449175  0.25555619     0.02100
C1311       C  0.73822653  0.17049115  0.24340046     0.02100
C1312       C  0.74392951  0.18290443  0.23756722     0.02100
C1313       C  0.75620235  0.18885180  0.24349203     0.02100
C1314       C  0.76230163  0.18288178  0.25565744     0.02100
N1315       N  0.14919642  0.08575252  0.41196343    -0.27400
N1316       N  0.13987231  0.07566619  0.41390185    -0.35300
C1317       C  0.13737962  0.07426532  0.42773480     0.00900
C1318       C  0.14554037  0.08397230  0.43496897     0.06900
C1319       C  0.15291387  0.09107028  0.42453865    -0.06200
H1320       H  0.13020729  0.06660956  0.43210505     0.07600
H1321       H  0.16042395  0.09949107  0.42589477     0.08800
Cu1322     Cu  0.13114902  0.06413612  0.39764210     0.44200
Cu1323     Cu  0.15637700  0.09143843  0.39220268     0.42000
Cu1324     Cu  0.14225289  0.07178128  0.36211845     0.43900
N1325       N  0.12395892  0.05338417  0.38014315    -0.34800
N1326       N  0.12791872  0.05608871  0.36710420    -0.29100
C1327       C  0.12130558  0.04713937  0.35834725    -0.05200
C1328       C  0.11276787  0.03832679  0.36628590     0.07000
C1329       C  0.11476891  0.04268340  0.38006717     0.00800
H1330       H  0.12270849  0.04706476  0.34705919     0.08500
H1331       H  0.10985239  0.03853731  0.38944265     0.07600
N1332       N  0.15708926  0.08773029  0.36058696    -0.36300
N1333       N  0.16217651  0.09474366  0.37146277    -0.28400
C1334       C  0.17165705  0.10414418  0.36686099    -0.03700
C1335       C  0.17263770  0.10306396  0.35235465     0.04900
C1336       C  0.16320432  0.09252694  0.34876773     0.03000
H1337       H  0.17730585  0.11129339  0.37365923     0.08100
H1338       H  0.16100111  0.08847936  0.33836984     0.07000
N1339       N  0.14732956  0.08560336  0.59046975    -0.27400
N1340       N  0.13751935  0.07602615  0.58835321    -0.35300
C1341       C  0.13531160  0.07466356  0.57447000     0.00900
C1342       C  0.14417421  0.08386026  0.56739015     0.06900
C1343       C  0.15165615  0.09061997  0.57796390    -0.06200
H1344       H  0.12768476  0.06753930  0.56997353     0.07600
H1345       H  0.15965056  0.09860719  0.57675121     0.08800
Cu1346     Cu  0.12754758  0.06531576  0.60446997     0.44200
Cu1347     Cu  0.15394900  0.09137487  0.61039427     0.42000
Cu1348     Cu  0.13674900  0.07403687  0.64031321     0.43900
N1349       N  0.11910966  0.05534580  0.62188936    -0.34800
N1350       N  0.12238233  0.05841676  0.63503609    -0.29100
C1351       C  0.11521219  0.04978104  0.64367974    -0.05200
C1352       C  0.10701919  0.04079379  0.63556021     0.07000
C1353       C  0.10981314  0.04473326  0.62178481     0.00800
H1354       H  0.11605929  0.04999195  0.65501904     0.08500
H1355       H  0.10547631  0.04027722  0.61227115     0.07600
N1356       N  0.15205201  0.08955943  0.64213681    -0.36300
N1357       N  0.15832832  0.09562436  0.63130558    -0.28400
C1358       C  0.16795983  0.10478200  0.63607864    -0.03700
C1359       C  0.16779665  0.10453950  0.65064728     0.04900
C1360       C  0.15752153  0.09477456  0.65410344     0.03000
H1361       H  0.17456021  0.11114666  0.62935255     0.08100
H1362       H  0.15443492  0.09142710  0.66452787     0.07000
C1363       C  0.25631830  0.18219235  0.23880163     0.02100
C1364       C  0.26201788  0.17004759  0.24518852     0.02100
C1365       C  0.25617161  0.16485158  0.25781105     0.02100
C1366       C  0.24405433  0.17122323  0.26354067     0.02100
C1367       C  0.23840735  0.18342063  0.25724525     0.02100
C1368       C  0.24431541  0.18870875  0.24466656     0.02100
C1369       C  0.18173017  0.11141675  0.34281774    -0.03500
C1370       C  0.19275407  0.11968605  0.34824586    -0.09300
C1371       C  0.20118810  0.12771546  0.33927427    -0.16900
C1372       C  0.19872925  0.12759837  0.32477699     0.25200
C1373       C  0.18786335  0.11936311  0.31925536    -0.18600
C1374       C  0.17942458  0.11131249  0.32819620    -0.07500
C1375       C  0.20727906  0.13594384  0.31551729    -0.13900
C1376       C  0.21405781  0.14270934  0.30722630    -0.13700
C1377       C  0.22154630  0.15032819  0.29653617     0.25100
C1378       C  0.21576869  0.15137152  0.28304732    -0.19100
C1379       C  0.22310775  0.15833556  0.27243073    -0.07500
C1380       C  0.23630506  0.16433311  0.27519299    -0.03600
C1381       C  0.24199973  0.16346819  0.28878776    -0.08900
C1382       C  0.23464341  0.15644153  0.29942741    -0.16600
H1383       H  0.19495864  0.11993364  0.35940225     0.11600
H1384       H  0.20960772  0.13402472  0.34364856     0.10900
H1385       H  0.18587076  0.11921173  0.30803271     0.10800
H1386       H  0.17100888  0.10517424  0.32363083     0.11300
H1387       H  0.20565213  0.14667868  0.28070326     0.11400
H1388       H  0.21859084  0.15891842  0.26198531     0.11300
H1389       H  0.25213597  0.16812094  0.29108697     0.11500
H1390       H  0.23919261  0.15568957  0.30984544     0.10300
C1391       C  0.14621741  0.08615834  0.45044527    -0.03500
C1392       C  0.13695062  0.07891750  0.45944593    -0.09300
C1393       C  0.13760089  0.08083308  0.47399222    -0.16900
C1394       C  0.14749076  0.09000714  0.47982780     0.25200
C1395       C  0.15673872  0.09732653  0.47102616    -0.18600
C1396       C  0.15611183  0.09543025  0.45642776    -0.07500
C1397       C  0.14822829  0.09150948  0.49487789    -0.13900
C1398       C  0.14811627  0.09149840  0.50756255    -0.13700
C1399       C  0.14711488  0.08989916  0.52258668     0.25100
C1400       C  0.15461461  0.09870784  0.53168031    -0.19100
C1401       C  0.15369431  0.09678434  0.54626264    -0.07500
C1402       C  0.14524370  0.08600719  0.55193039    -0.03600
C1403       C  0.13775069  0.07725785  0.54263153    -0.08900
C1404       C  0.13868428  0.07920641  0.52810970    -0.16600
H1405       H  0.12913701  0.07176140  0.45533823     0.11600
H1406       H  0.13040418  0.07508821  0.48071089     0.10900
H1407       H  0.16448165  0.10442215  0.47543999     0.10800
H1408       H  0.16345954  0.10115484  0.44990415     0.11300
H1409       H  0.16119205  0.10702224  0.52751271     0.11400
H1410       H  0.15957781  0.10377397  0.55302969     0.11300
H1411       H  0.13120183  0.06880740  0.54647895     0.11500
H1412       H  0.13286230  0.07229692  0.52116413     0.10300
C1413       C  0.17692531  0.11265733  0.66033556    -0.03500
C1414       C  0.17331502  0.11420140  0.67460857    -0.09300
C1415       C  0.18198643  0.12184005  0.68370725    -0.16900
C1416       C  0.19438098  0.12799179  0.67867813     0.25200
C1417       C  0.19808092  0.12648748  0.66452195    -0.18600
C1418       C  0.18941343  0.11889996  0.65539890    -0.07500
C1419       C  0.20331911  0.13580339  0.68805137    -0.13900
C1420       C  0.21069389  0.14219948  0.69613187    -0.13700
C1421       C  0.21917900  0.14946468  0.70632388     0.25100
C1422       C  0.22666727  0.16160086  0.70258694    -0.19100
C1423       C  0.23464872  0.16873963  0.71269319    -0.07500
C1424       C  0.23515935  0.16374048  0.72656386    -0.03600
C1425       C  0.22775326  0.15152192  0.73019896    -0.08900
C1426       C  0.21978731  0.14442963  0.72013352    -0.16600
H1427       H  0.16374182  0.10963881  0.67874047     0.11600
H1428       H  0.17902005  0.12295419  0.69465836     0.10900
H1429       H  0.20768207  0.13116008  0.66053416     0.10800
H1430       H  0.19261819  0.11780393  0.64453453     0.11300
H1431       H  0.22625792  0.16557587  0.69191851     0.11400
H1432       H  0.24033026  0.17816031  0.70976855     0.11300
H1433       H  0.22803870  0.14759120  0.74089022     0.11500
H1434       H  0.21402973  0.13507292  0.72313939     0.10300
C1435       C  0.23567485  0.20015194  0.76402332    -0.03500
C1436       C  0.24063323  0.21402768  0.76465466    -0.09300
C1437       C  0.23299068  0.22425684  0.77200890    -0.16900
C1438       C  0.22036120  0.22067139  0.77875268     0.25200
C1439       C  0.21543880  0.20682720  0.77814443    -0.18600
C1440       C  0.22303687  0.19663541  0.77080498    -0.07500
C1441       C  0.21237991  0.23110599  0.78631118    -0.13900
C1442       C  0.20540629  0.23946045  0.79284557    -0.13700
C1443       C  0.19702686  0.24915591  0.80094648     0.25100
C1444       C  0.18714204  0.24410268  0.81061336    -0.19100
C1445       C  0.17931792  0.25347558  0.81882435    -0.07500
C1446       C  0.18127269  0.26808767  0.81750760    -0.03600
C1447       C  0.19108837  0.27304790  0.80756679    -0.08900
C1448       C  0.19889978  0.26364702  0.79937355    -0.16600
H1449       H  0.25033406  0.21690385  0.75942039     0.11600
H1450       H  0.23689904  0.23494050  0.77241237     0.10900
H1451       H  0.20570973  0.20391657  0.78332178     0.10800
H1452       H  0.21908458  0.18596544  0.77040194     0.11300
H1453       H  0.18555614  0.23290101  0.81189065     0.11400
H1454       H  0.17179896  0.24920926  0.82621486     0.11300
H1455       H  0.19294284  0.28417097  0.80620920     0.11500
H1456       H  0.20650760  0.26768932  0.79190889     0.10300
C1457       C  0.15073769  0.37689286  0.84563800    -0.03500
C1458       C  0.15919916  0.38271468  0.83494948    -0.09300
C1459       C  0.15930261  0.39723369  0.83256678    -0.16900
C1460       C  0.15095132  0.40611351  0.84080880     0.25200
C1461       C  0.14245474  0.40043482  0.85137816    -0.18600
C1462       C  0.14232807  0.38596747  0.85378059    -0.07500
C1463       C  0.15112468  0.42108441  0.83869732    -0.13900
C1464       C  0.15060097  0.43372396  0.83804835    -0.13700
C1465       C  0.14917711  0.44876623  0.83863239     0.25100
C1466       C  0.13794699  0.45465573  0.84607671    -0.19100
C1467       C  0.13674285  0.46922136  0.84732523    -0.07500
C1468       C  0.14679217  0.47816901  0.84115098    -0.03600
C1469       C  0.15794978  0.47214575  0.83348400    -0.08900
C1470       C  0.15913811  0.45752965  0.83226203    -0.16600
H1471       H  0.16583624  0.37612879  0.82847748     0.11600
H1472       H  0.16594063  0.40152776  0.82435783     0.10900
H1473       H  0.13593814  0.40721405  0.85781993     0.10800
H1474       H  0.13559730  0.38198455  0.86203119     0.11300
H1475       H  0.13016948  0.44797024  0.85104711     0.11400
H1476       H  0.12791796  0.47340277  0.85315515     0.11300
H1477       H  0.16590903  0.47866423  0.82863379     0.11500
H1478       H  0.16790553  0.45307349  0.82650337     0.10300
C1479       C  0.23597234  0.65331186  0.76232683    -0.03500
C1480       C  0.23020284  0.65587538  0.77567629    -0.09300
C1481       C  0.22259563  0.64543415  0.78261316    -0.16900
C1482       C  0.22064632  0.63230935  0.77628167     0.25200
C1483       C  0.22656044  0.62958389  0.76304106    -0.18600
C1484       C  0.23424539  0.64004606  0.75608806    -0.07500
C1485       C  0.21224315  0.62187545  0.78331428    -0.13900
C1486       C  0.20485196  0.61372724  0.78961812    -0.13700
C1487       C  0.19586498  0.60440146  0.79745505     0.25100
C1488       C  0.19928724  0.59016574  0.79864552    -0.19100
C1489       C  0.19066857  0.58113693  0.80640749    -0.07500
C1490       C  0.17851230  0.58624124  0.81315601    -0.03600
C1491       C  0.17513659  0.60057597  0.81186203    -0.08900
C1492       C  0.18375461  0.60958133  0.80404334    -0.16600
H1493       H  0.23145379  0.66605465  0.78062465     0.11600
H1494       H  0.21808074  0.64765662  0.79284315     0.10900
H1495       H  0.22512088  0.61944893  0.75805643     0.10800
H1496       H  0.23871180  0.63788380  0.74583133     0.11300
H1497       H  0.20866035  0.58605195  0.79363333     0.11400
H1498       H  0.19368591  0.57021432  0.80728029     0.11300
H1499       H  0.16580986  0.60483626  0.81680114     0.11500
H1500       H  0.18099437  0.62059270  0.80317319     0.10300
C1501       C  0.72592269  0.68960027  0.76562417    -0.03500
C1502       C  0.71241440  0.69113667  0.75984303    -0.09300
C1503       C  0.70190581  0.69816195  0.76738457    -0.16900
C1504       C  0.70476481  0.70348186  0.78083187     0.25200
C1505       C  0.71810523  0.70166720  0.78675256    -0.18600
C1506       C  0.72863716  0.69481050  0.77917703    -0.07500
C1507       C  0.69422252  0.71119790  0.78844744    -0.13900
C1508       C  0.68588418  0.71815140  0.79498261    -0.13700
C1509       C  0.67634286  0.72693244  0.80276443     0.25100
C1510       C  0.68063383  0.73304910  0.81544475    -0.19100
C1511       C  0.67152538  0.74193201  0.82280879    -0.07500
C1512       C  0.65797183  0.74477075  0.81759107    -0.03600
C1513       C  0.65372988  0.73848497  0.80488450    -0.08900
C1514       C  0.66287860  0.72965240  0.79751225    -0.16600
H1515       H  0.71009150  0.68705939  0.74946492     0.11600
H1516       H  0.69160978  0.69952883  0.76270683     0.10900
H1517       H  0.72042677  0.70573761  0.79714271     0.10800
H1518       H  0.73898822  0.69370207  0.78380180     0.11300
H1519       H  0.69104262  0.73100665  0.81960565     0.11400
H1520       H  0.67508043  0.74646206  0.83262531     0.11300
H1521       H  0.64343088  0.74053740  0.80050962     0.11500
H1522       H  0.65948223  0.72502170  0.78766751     0.10300
C1523       C  0.34228388  0.73722068  0.82050739    -0.03500
C1524       C  0.32771746  0.73685929  0.82313151    -0.09300
C1525       C  0.31889030  0.72836961  0.81502698    -0.16900
C1526       C  0.32447822  0.72009307  0.80423024     0.25200
C1527       C  0.33897494  0.72000538  0.80180563    -0.18600
C1528       C  0.34783653  0.72848486  0.80989822    -0.07500
C1529       C  0.31520230  0.71235600  0.79517430    -0.13900
C1530       C  0.30680914  0.70673288  0.78755203    -0.13700
C1531       C  0.29595900  0.70089538  0.77883479     0.25100
C1532       C  0.29856484  0.68898621  0.77056703    -0.19100
C1533       C  0.28771694  0.68307262  0.76258957    -0.07500
C1534       C  0.27424783  0.68907820  0.76286350    -0.03600
C1535       C  0.27179649  0.70120296  0.77088109    -0.08900
C1536       C  0.28260411  0.70706649  0.77886178    -0.16600
H1537       H  0.32304832  0.74325526  0.83129379     0.11600
H1538       H  0.30766344  0.72848146  0.81699725     0.10900
H1539       H  0.34339636  0.71362909  0.79345632     0.10800
H1540       H  0.35895885  0.72841509  0.80754162     0.11300
H1541       H  0.30888744  0.68417465  0.77045723     0.11400
H1542       H  0.28971273  0.67371360  0.75642028     0.11300
H1543       H  0.26142010  0.70589373  0.77120397     0.11500
H1544       H  0.28049882  0.71628914  0.78521064     0.10300
C1545       C  0.44825795  0.78004607  0.84030902    -0.03500
C1546       C  0.45498716  0.76784180  0.83532174    -0.09300
C1547       C  0.46966574  0.76723921  0.83441412    -0.16900
C1548       C  0.47779942  0.77882481  0.83841009     0.25200
C1549       C  0.47120069  0.79111954  0.84303137    -0.18600
C1550       C  0.45655086  0.79174682  0.84396203    -0.07500
C1551       C  0.49291248  0.77796977  0.83840884    -0.13900
C1552       C  0.50556220  0.77765883  0.83924819    -0.13700
C1553       C  0.52058208  0.77788589  0.84112626     0.25100
C1554       C  0.52652578  0.78707984  0.85093379    -0.19100
C1555       C  0.54108070  0.78742791  0.85287524    -0.07500
C1556       C  0.54997031  0.77855936  0.84501637    -0.03600
C1557       C  0.54386487  0.76929447  0.83519898    -0.08900
C1558       C  0.52926826  0.76896845  0.83328025    -0.16600
H1559       H  0.44898751  0.75862327  0.83244710     0.11600
H1560       H  0.47467251  0.75765430  0.83084019     0.10900
H1561       H  0.47739415  0.80016526  0.84612689     0.10800
H1562       H  0.45178449  0.80138596  0.84764827     0.11300
H1563       H  0.51989915  0.79402545  0.85707740     0.11400
H1564       H  0.54528944  0.79475584  0.86047381     0.11300
H1565       H  0.55030011  0.76225164  0.82901070     0.11500
H1566       H  0.52476744  0.76176966  0.82568292     0.10300
C1567       C  0.81844957  0.73994972  0.65760688    -0.03500
C1568       C  0.80915624  0.72956892  0.65256365    -0.09300
C1569       C  0.80083648  0.72178878  0.66187604    -0.16900
C1570       C  0.80166449  0.72424128  0.67635857     0.25200
C1571       C  0.81093392  0.73444143  0.68150238    -0.18600
C1572       C  0.81926607  0.74223649  0.67221984    -0.07500
C1573       C  0.79284364  0.71651808  0.68596050    -0.13900
C1574       C  0.78551873  0.71053016  0.69442096    -0.13700
C1575       C  0.77708252  0.70398483  0.70517595     0.25100
C1576       C  0.77602735  0.71030133  0.71843773    -0.19100
C1577       C  0.76839086  0.70377038  0.72915739    -0.07500
C1578       C  0.76174287  0.69082783  0.72674345    -0.03600
C1579       C  0.76246565  0.68470948  0.71330425    -0.08900
C1580       C  0.77016088  0.69124159  0.70257760    -0.16600
H1581       H  0.80826787  0.72738630  0.64143793     0.11600
H1582       H  0.79370900  0.71390801  0.65776776     0.10900
H1583       H  0.81165081  0.73644788  0.69270125     0.10800
H1584       H  0.82620937  0.75013081  0.67654321     0.11300
H1585       H  0.78131551  0.72016093  0.72056388     0.11400
H1586       H  0.76798311  0.70859995  0.73947050     0.11300
H1587       H  0.75736680  0.67474137  0.71125930     0.11500
H1588       H  0.77087993  0.68626874  0.69234966     0.10300
C1589       C  0.76420373  0.69125448  0.27351663    -0.03500
C1590       C  0.76526486  0.68545479  0.28704683    -0.09300
C1591       C  0.77369070  0.69195259  0.29719633    -0.16900
C1592       C  0.78101438  0.70428956  0.29386986     0.25200
C1593       C  0.77962714  0.71030427  0.28051889    -0.18600
C1594       C  0.77124281  0.70382439  0.27038697    -0.07500
C1595       C  0.79025595  0.71066494  0.30395563    -0.13900
C1596       C  0.79820722  0.71640286  0.31195587    -0.13700
C1597       C  0.80753908  0.72376272  0.32126354     0.25100
C1598       C  0.81766288  0.73293038  0.31581122    -0.19100
C1599       C  0.82622397  0.74069260  0.32489048    -0.07500
C1600       C  0.82472805  0.73941227  0.33957521    -0.03600
C1601       C  0.81473070  0.72986531  0.34490434    -0.08900
C1602       C  0.80619383  0.72212944  0.33580327    -0.16600
H1603       H  0.75986177  0.67576352  0.28958867     0.11600
H1604       H  0.77468504  0.68724878  0.30752369     0.10900
H1605       H  0.78523475  0.71985551  0.27786294     0.10800
H1606       H  0.77054366  0.70837483  0.25996529     0.11300
H1607       H  0.81879978  0.73423668  0.30454342     0.11400
H1608       H  0.83383614  0.74780620  0.32034462     0.11300
H1609       H  0.81325350  0.72848349  0.35608965     0.11500
H1610       H  0.79839212  0.71503282  0.34011940     0.10300
C1611       C  0.84610311  0.77477083  0.44748747    -0.03500
C1612       C  0.83721835  0.76418022  0.45283452    -0.09300
C1613       C  0.83556411  0.76239582  0.46734791    -0.16900
C1614       C  0.84273736  0.77116226  0.47671489     0.25200
C1615       C  0.85156281  0.78172220  0.47153528    -0.18600
C1616       C  0.85324001  0.78353022  0.45705014    -0.07500
C1617       C  0.84117610  0.76942479  0.49166194    -0.13900
C1618       C  0.84079916  0.76896245  0.50432368    -0.13700
C1619       C  0.84174036  0.76980621  0.51939602     0.25100
C1620       C  0.84892805  0.78109537  0.52544895    -0.19100
C1621       C  0.85055696  0.78187420  0.54000356    -0.07500
C1622       C  0.84501393  0.77133994  0.54877847    -0.03600
C1623       C  0.83753240  0.76013782  0.54263458    -0.08900
C1624       C  0.83594318  0.75936112  0.52800055    -0.16600
H1625       H  0.83149100  0.75725577  0.44587595     0.11600
H1626       H  0.82869817  0.75418561  0.47125157     0.10900
H1627       H  0.85718554  0.78856037  0.47871061     0.10800
H1628       H  0.86020589  0.79174851  0.45342904     0.11300
H1629       H  0.85341197  0.78926093  0.51888633     0.11400
H1630       H  0.85616808  0.79076538  0.54432929     0.11300
H1631       H  0.83316768  0.75183470  0.54907040     0.11500
H1632       H  0.83036174  0.75055992  0.52340683     0.10300
C1633       C  0.76375482  0.65314685  0.76329771    -0.03500
C1634       C  0.77689333  0.65591422  0.76940912    -0.09300
C1635       C  0.78444473  0.64517487  0.77592767    -0.16900
C1636       C  0.77896184  0.63153931  0.77638744     0.25200
C1637       C  0.76586335  0.62867515  0.77024392    -0.18600
C1638       C  0.75827578  0.63945193  0.76369149    -0.07500
C1639       C  0.78683821  0.62063633  0.78330819    -0.13900
C1640       C  0.79397344  0.61216072  0.78946487    -0.13700
C1641       C  0.80282176  0.60265713  0.79723999     0.25100
C1642       C  0.80083644  0.58813778  0.79619812    -0.19100
C1643       C  0.80919739  0.57896350  0.80408214    -0.07500
C1644       C  0.81967607  0.58419164  0.81317427    -0.03600
C1645       C  0.82171553  0.59882786  0.81394286    -0.08900
C1646       C  0.81334218  0.60796887  0.80604696    -0.16600
H1647       H  0.78123516  0.66643761  0.76919269     0.11600
H1648       H  0.79454508  0.64751470  0.78065513     0.10900
H1649       H  0.76152349  0.61815501  0.77054748     0.10800
H1650       H  0.74816968  0.63716180  0.75896635     0.11300
H1651       H  0.79273690  0.58390343  0.78939127     0.11400
H1652       H  0.80725775  0.56781271  0.80315210     0.11300
H1653       H  0.82970989  0.60329681  0.82067859     0.11500
H1654       H  0.81500910  0.61920041  0.80689760     0.10300
C1655       C  0.81359331  0.26767176  0.82075509    -0.03500
C1656       C  0.81571417  0.25303164  0.82070496    -0.09300
C1657       C  0.80735051  0.24429705  0.81234910    -0.16900
C1658       C  0.79673873  0.25002525  0.80393054     0.25200
C1659       C  0.79442163  0.26452444  0.80398723    -0.18600
C1660       C  0.80276442  0.27329036  0.81233576    -0.07500
C1661       C  0.78849412  0.24099502  0.79502478    -0.13900
C1662       C  0.78227488  0.23280942  0.78761448    -0.13700
C1663       C  0.77583324  0.22210362  0.77909766     0.25100
C1664       C  0.76277609  0.22438366  0.77265561    -0.19100
C1665       C  0.75647959  0.21366285  0.76477613    -0.07500
C1666       C  0.76314431  0.20055208  0.76344960    -0.03600
C1667       C  0.77633471  0.19845657  0.76971261    -0.08900
C1668       C  0.78264956  0.20917930  0.77746834    -0.16600
H1669       H  0.82388003  0.24825965  0.82700506     0.11600
H1670       H  0.80923974  0.23306915  0.81237170     0.10900
H1671       H  0.78623403  0.26907314  0.79750283     0.10800
H1672       H  0.80071382  0.28445412  0.81206998     0.11300
H1673       H  0.75742275  0.23436085  0.77383649     0.11400
H1674       H  0.74632873  0.21546822  0.75994561     0.11300
H1675       H  0.78158815  0.18839570  0.76882854     0.11500
H1676       H  0.79275750  0.20731612  0.78238514     0.10300
C1677       C  0.84711143  0.37480041  0.84804925    -0.03500
C1678       C  0.83477052  0.38080534  0.84250448    -0.09300
C1679       C  0.83369659  0.39536165  0.84077366    -0.16900
C1680       C  0.84494822  0.40407338  0.84449951     0.25200
C1681       C  0.85729304  0.39819378  0.84990299    -0.18600
C1682       C  0.85838061  0.38367266  0.85167489    -0.07500
C1683       C  0.84377374  0.41908436  0.84328565    -0.13900
C1684       C  0.84345037  0.43173923  0.84324900    -0.13700
C1685       C  0.84389099  0.44678856  0.84450656     0.25100
C1686       C  0.84813425  0.45281340  0.85722879    -0.19100
C1687       C  0.84900316  0.46738860  0.85856836    -0.07500
C1688       C  0.84562059  0.47619126  0.84717687    -0.03600
C1689       C  0.84120392  0.47004820  0.83444492    -0.08900
C1690       C  0.84038308  0.45541726  0.83311522    -0.16600
H1691       H  0.82585546  0.37431969  0.83970419     0.11600
H1692       H  0.82405626  0.39982179  0.83665679     0.10900
H1693       H  0.86605993  0.40485273  0.85284176     0.10800
H1694       H  0.86808908  0.37944254  0.85582123     0.11300
H1695       H  0.85084954  0.44622659  0.86611990     0.11400
H1696       H  0.85226790  0.47171944  0.86856954     0.11300
H1697       H  0.83861565  0.47649965  0.82544119     0.11500
H1698       H  0.83712176  0.45084811  0.82319828     0.10300
C1699       C  0.18698871  0.74920513  0.65833084    -0.03500
C1700       C  0.18342035  0.74810649  0.67265947    -0.09300
C1701       C  0.19138487  0.73971642  0.68172023    -0.16900
C1702       C  0.20304256  0.73231918  0.67663263     0.25200
C1703       C  0.20676032  0.73340849  0.66243252    -0.18600
C1704       C  0.19879402  0.74178021  0.65333406    -0.07500
C1705       C  0.21101220  0.72349009  0.68600139    -0.13900
C1706       C  0.21715591  0.71614775  0.69431752    -0.13700
C1707       C  0.22381813  0.70759820  0.70488938     0.25100
C1708       C  0.23673982  0.70104154  0.70219544    -0.19100
C1709       C  0.24323591  0.69298680  0.71266221    -0.07500
C1710       C  0.23689363  0.69151993  0.72593487    -0.03600
C1711       C  0.22386497  0.69796735  0.72849140    -0.08900
C1712       C  0.21736417  0.70595033  0.71802555    -0.16600
H1713       H  0.17437604  0.75355829  0.67688589     0.11600
H1714       H  0.18839097  0.73893075  0.69269281     0.10900
H1715       H  0.21578395  0.72775283  0.65837890     0.10800
H1716       H  0.20196138  0.74246222  0.64242598     0.11300
H1717       H  0.24181703  0.70222183  0.69205972     0.11400
H1718       H  0.25324626  0.68801414  0.71048748     0.11300
H1719       H  0.21884805  0.69697070  0.73867664     0.11500
H1720       H  0.20736627  0.71095430  0.72022399     0.10300
C1721       C  0.18069320  0.74076696  0.34139658    -0.03500
C1722       C  0.19136065  0.73191102  0.34662049    -0.09300
C1723       C  0.19992886  0.72427741  0.33741043    -0.16900
C1724       C  0.19796223  0.72537001  0.32287429     0.25200
C1725       C  0.18741235  0.73411254  0.31757001    -0.18600
C1726       C  0.17883788  0.74174412  0.32673417    -0.07500
C1727       C  0.20666511  0.71751923  0.31331477    -0.13900
C1728       C  0.21351497  0.71124154  0.30469485    -0.13700
C1729       C  0.22117120  0.70423423  0.29369377     0.25100
C1730       C  0.22219064  0.71051576  0.28042697    -0.19100
C1731       C  0.22937107  0.70371273  0.26958592    -0.07500
C1732       C  0.23564595  0.69056740  0.27190646    -0.03600
C1733       C  0.23467904  0.68431630  0.28524948    -0.08900
C1734       C  0.22741156  0.69111600  0.29609684    -0.16600
H1735       H  0.19317173  0.73084957  0.35779472     0.11600
H1736       H  0.20807595  0.71752810  0.34162817     0.10900
H1737       H  0.18579624  0.73502445  0.30632278     0.10800
H1738       H  0.17077911  0.74837381  0.32224571     0.11300
H1739       H  0.21738189  0.72064444  0.27844833     0.11400
H1740       H  0.23002318  0.70866435  0.25934583     0.11300
H1741       H  0.23954071  0.67422118  0.28722662     0.11500
H1742       H  0.22665561  0.68616165  0.30632704     0.10300
C1743       C  0.15429031  0.77565629  0.44904008    -0.03500
C1744       C  0.14799529  0.78585717  0.45772564    -0.09300
C1745       C  0.15025669  0.78575188  0.47223171    -0.16900
C1746       C  0.15884477  0.77549074  0.47829803     0.25200
C1747       C  0.16532083  0.76540208  0.46978055    -0.18600
C1748       C  0.16307997  0.76548367  0.45523633    -0.07500
C1749       C  0.16057074  0.77518985  0.49331372    -0.13900
C1750       C  0.16090954  0.77563472  0.50597221    -0.13700
C1751       C  0.15997707  0.77711719  0.52099068     0.25100
C1752       C  0.16956804  0.77036510  0.52986117    -0.19100
C1753       C  0.16850248  0.77197851  0.54446138    -0.07500
C1754       C  0.15781462  0.78038403  0.55035349    -0.03600
C1755       C  0.14823249  0.78707889  0.54128381    -0.08900
C1756       C  0.14931901  0.78544545  0.52673707    -0.16600
H1757       H  0.14129743  0.79394857  0.45339223     0.11600
H1758       H  0.14519991  0.79362065  0.47874258     0.10900
H1759       H  0.17196967  0.75738852  0.47438873     0.10800
H1760       H  0.16806816  0.75743970  0.44893496     0.11300
H1761       H  0.17786966  0.76388853  0.52550546     0.11400
H1762       H  0.17611033  0.76671548  0.55106769     0.11300
H1763       H  0.13979024  0.79351518  0.54534959     0.11500
H1764       H  0.14181439  0.79068672  0.51995418     0.10300
C1765       C  0.81704805  0.10868145  0.65845898    -0.03500
C1766       C  0.80723979  0.11850211  0.65330053    -0.09300
C1767       C  0.79951708  0.12691999  0.66254071    -0.16900
C1768       C  0.80145081  0.12565382  0.67705439     0.25200
C1769       C  0.81104823  0.11584972  0.68233014    -0.18600
C1770       C  0.81879476  0.10741521  0.67311644    -0.07500
C1771       C  0.79353892  0.13434146  0.68655750    -0.13900
C1772       C  0.78694489  0.14123395  0.69489081    -0.13700
C1773       C  0.77919497  0.14864622  0.70553723     0.25100
C1774       C  0.77748784  0.14249273  0.71878144    -0.19100
C1775       C  0.77012449  0.14957324  0.72929668    -0.07500
C1776       C  0.76427924  0.16285321  0.72666141    -0.03600
C1777       C  0.76584748  0.16894573  0.71329102    -0.08900
C1778       C  0.77337075  0.16188878  0.70278183    -0.16600
H1779       H  0.80548790  0.11977548  0.64214165     0.11600
H1780       H  0.79205565  0.13443797  0.65835618     0.10900
H1781       H  0.81257885  0.11475223  0.69357250     0.10800
H1782       H  0.82618425  0.10000760  0.67754263     0.11300
H1783       H  0.78193094  0.13224938  0.72100873     0.11400
H1784       H  0.76905104  0.14474773  0.73956079     0.11300
H1785       H  0.76132663  0.17914341  0.71105339     0.11500
H1786       H  0.77463132  0.16672789  0.69254530     0.10300
C1787       C  0.76389033  0.16324239  0.27330627    -0.03500
C1788       C  0.76488126  0.16934559  0.28673556    -0.09300
C1789       C  0.77241252  0.16256749  0.29743508    -0.16900
C1790       C  0.77893347  0.14961349  0.29480543     0.25200
C1791       C  0.77781372  0.14345513  0.28147745    -0.18600
C1792       C  0.77034560  0.15021969  0.27079955    -0.07500
C1793       C  0.78686488  0.14254953  0.30562901    -0.13900
C1794       C  0.79372842  0.13591590  0.31399966    -0.13700
C1795       C  0.80207827  0.12731633  0.32328909     0.25100
C1796       C  0.81441988  0.12100487  0.31832857    -0.19100
C1797       C  0.82234299  0.11228177  0.32712902    -0.07500
C1798       C  0.81804748  0.10974014  0.34106928    -0.03600
C1799       C  0.80564617  0.11620532  0.34597900    -0.08900
C1800       C  0.79772603  0.12490588  0.33714304    -0.16600
H1801       H  0.75993938  0.17937530  0.28885758     0.11600
H1802       H  0.77319702  0.16743836  0.30770574     0.10900
H1803       H  0.78280452  0.13345256  0.27930770     0.10800
H1804       H  0.76973954  0.14539623  0.26049398     0.11300
H1805       H  0.81789228  0.12277120  0.30761581     0.11400
H1806       H  0.83185961  0.10761728  0.32299474     0.11300
H1807       H  0.80191832  0.11443653  0.35658170     0.11500
H1808       H  0.78815402  0.12966628  0.34109195     0.10300
C1809       C  0.84563967  0.07612625  0.44837631    -0.03500
C1810       C  0.83673207  0.08641549  0.45422681    -0.09300
C1811       C  0.83502264  0.08742787  0.46881435    -0.16900
C1812       C  0.84216129  0.07817030  0.47772527     0.25200
C1813       C  0.85098351  0.06788700  0.47202483    -0.18600
C1814       C  0.85271818  0.06685721  0.45747739    -0.07500
C1815       C  0.84074219  0.07925429  0.49274206    -0.13900
C1816       C  0.84062816  0.07942618  0.50541208    -0.13700
C1817       C  0.84191824  0.07870078  0.52045698     0.25100
C1818       C  0.85288861  0.07089295  0.52631531    -0.19100
C1819       C  0.85444471  0.07012890  0.54087927    -0.07500
C1820       C  0.84502003  0.07717864  0.54986657    -0.03600
C1821       C  0.83397036  0.08499873  0.54386899    -0.08900
C1822       C  0.83243693  0.08574647  0.52923903    -0.16600
H1823       H  0.83118059  0.09379218  0.44759865     0.11600
H1824       H  0.82820271  0.09546606  0.47313397     0.10900
H1825       H  0.85656615  0.06066865  0.47884180     0.10800
H1826       H  0.85955898  0.05873052  0.45342861     0.11300
H1827       H  0.86030341  0.06542085  0.51960354     0.11400
H1828       H  0.86314726  0.06410073  0.54500435     0.11300
H1829       H  0.82646817  0.09049332  0.55042238     0.11500
H1830       H  0.82388830  0.09181596  0.52479162     0.10300
C1831       C  0.76346945  0.65380620  0.23680665    -0.03500
C1832       C  0.77678102  0.65623397  0.23089278    -0.09300
C1833       C  0.78385781  0.64548076  0.22387863    -0.16900
C1834       C  0.77768273  0.63219736  0.22265248     0.25200
C1835       C  0.76442630  0.62966201  0.22858896    -0.18600
C1836       C  0.75734710  0.64042839  0.23569641    -0.07500
C1837       C  0.78494048  0.62133859  0.21505593    -0.13900
C1838       C  0.79149048  0.61285332  0.20830894    -0.13700
C1839       C  0.79971451  0.60334966  0.19991113     0.25100
C1840       C  0.79986813  0.58898400  0.20297218    -0.19100
C1841       C  0.80799796  0.57981015  0.19485035    -0.07500
C1842       C  0.81610841  0.58490151  0.18354083    -0.03600
C1843       C  0.81581826  0.59938898  0.18055133    -0.08900
C1844       C  0.80768627  0.60852550  0.18868625    -0.16600
H1845       H  0.78163528  0.66650542  0.23165996     0.11600
H1846       H  0.79409865  0.64755319  0.21931980     0.10900
H1847       H  0.75956531  0.61940686  0.22768514     0.10800
H1848       H  0.74712767  0.63837117  0.24029027     0.11300
H1849       H  0.79374442  0.58487656  0.21166455     0.11400
H1850       H  0.80797200  0.56877680  0.19754918     0.11300
H1851       H  0.82179988  0.60373747  0.17191311     0.11500
H1852       H  0.80762933  0.61964209  0.18622344     0.10300
C1853       C  0.81615277  0.26840319  0.18210656    -0.03500
C1854       C  0.81772645  0.25372037  0.18122187    -0.09300
C1855       C  0.80941259  0.24483318  0.18943958    -0.16900
C1856       C  0.79942324  0.25046633  0.19864811     0.25200
C1857       C  0.79771114  0.26501400  0.19959621    -0.18600
C1858       C  0.80600664  0.27393468  0.19138695    -0.07500
C1859       C  0.79106357  0.24126403  0.20720112    -0.13900
C1860       C  0.78452162  0.23296536  0.21415534    -0.13700
C1861       C  0.77744580  0.22217661  0.22196696     0.25100
C1862       C  0.76445898  0.22481881  0.22842036    -0.19100
C1863       C  0.75750893  0.21405283  0.23563573    -0.07500
C1864       C  0.76350095  0.20059273  0.23632396    -0.03600
C1865       C  0.77658543  0.19808454  0.22997775    -0.08900
C1866       C  0.78352704  0.20883030  0.22284466    -0.16600
H1867       H  0.82541108  0.24902537  0.17427882     0.11600
H1868       H  0.81081841  0.23356041  0.18865162     0.10900
H1869       H  0.78998666  0.26946614  0.20669877     0.10800
H1870       H  0.80438969  0.28513472  0.19234399     0.11300
H1871       H  0.75968741  0.23513316  0.22779049     0.11400
H1872       H  0.74745266  0.21614137  0.24056474     0.11300
H1873       H  0.78132389  0.18774418  0.23043919     0.11500
H1874       H  0.79356912  0.20669607  0.21788863     0.10300
C1875       C  0.84914253  0.37550232  0.15191501    -0.03500
C1876       C  0.83923093  0.38171469  0.16101599    -0.09300
C1877       C  0.83861456  0.39632905  0.16253039    -0.16900
C1878       C  0.84789247  0.40491302  0.15500396     0.25200
C1879       C  0.85783908  0.39884994  0.14603061    -0.18600
C1880       C  0.85847943  0.38427616  0.14449524    -0.07500
C1881       C  0.84709943  0.41996040  0.15614546    -0.13900
C1882       C  0.84689401  0.43262047  0.15615426    -0.13700
C1883       C  0.84721277  0.44768199  0.15497121     0.25100
C1884       C  0.85316599  0.45383942  0.14302702    -0.19100
C1885       C  0.85353370  0.46843223  0.14165825    -0.07500
C1886       C  0.84794584  0.47714861  0.15224995    -0.03600
C1887       C  0.84196297  0.47084161  0.16424922    -0.08900
C1888       C  0.84160897  0.45619438  0.16559066    -0.16600
H1889       H  0.83183524  0.37535735  0.16686342     0.11600
H1890       H  0.83084095  0.40092820  0.16948322     0.10900
H1891       H  0.86507372  0.40540370  0.14014955     0.10800
H1892       H  0.86633423  0.37996312  0.13749407     0.11300
H1893       H  0.85751017  0.44734440  0.13472671     0.11400
H1894       H  0.85812260  0.47279729  0.13221694     0.11300
H1895       H  0.83762367  0.47716555  0.17265013     0.11500
H1896       H  0.83697919  0.45152126  0.17489645     0.10300
C1897       C  0.65952964  0.74580356  0.18299988    -0.03500
C1898       C  0.67407470  0.74856414  0.18309401    -0.09300
C1899       C  0.68318702  0.74027086  0.19109864    -0.16900
C1900       C  0.67790727  0.72911469  0.19909703     0.25200
C1901       C  0.66350265  0.72620645  0.19900794    -0.18600
C1902       C  0.65436945  0.73447460  0.19102162    -0.07500
C1903       C  0.68728594  0.72067590  0.20739805    -0.13900
C1904       C  0.69549864  0.71381045  0.21415244    -0.13700
C1905       C  0.70600016  0.70601517  0.22169751     0.25100
C1906       C  0.70299308  0.70016024  0.23489122    -0.19100
C1907       C  0.71344206  0.69287595  0.24225482    -0.07500
C1908       C  0.72695925  0.69150395  0.23646890    -0.03600
C1909       C  0.72984653  0.69730832  0.22320955    -0.08900
C1910       C  0.71941705  0.70450888  0.21585822    -0.16600
H1911       H  0.67845000  0.75719860  0.17713184     0.11600
H1912       H  0.69434437  0.74259749  0.19109420     0.10900
H1913       H  0.65932059  0.71755446  0.20512585     0.10800
H1914       H  0.64329597  0.73189931  0.19113570     0.11300
H1915       H  0.69262559  0.70127616  0.23948804     0.11400
H1916       H  0.71104517  0.68836826  0.25243645     0.11300
H1917       H  0.74023085  0.69632126  0.21861775     0.11500
H1918       H  0.72184571  0.70899651  0.20566698     0.10300
C1919       C  0.34104256  0.74984385  0.18541184    -0.03500
C1920       C  0.32666484  0.74909128  0.18197293    -0.09300
C1921       C  0.31751439  0.74071327  0.18987444    -0.16900
C1922       C  0.32257021  0.73300439  0.20134054     0.25200
C1923       C  0.33679576  0.73381130  0.20497073    -0.18600
C1924       C  0.34597274  0.74216698  0.19708139    -0.07500
C1925       C  0.31316626  0.72414452  0.20922993    -0.13900
C1926       C  0.30490370  0.71677427  0.21541008    -0.13700
C1927       C  0.29436166  0.70825059  0.22213474     0.25100
C1928       C  0.29727660  0.70123319  0.23476786    -0.19100
C1929       C  0.28680363  0.69324061  0.24134444    -0.07500
C1930       C  0.27336030  0.69226847  0.23531853    -0.03600
C1931       C  0.27057708  0.69915836  0.22257954    -0.08900
C1932       C  0.28101850  0.70712001  0.21603353    -0.16600
H1933       H  0.32247857  0.75476149  0.17305080     0.11600
H1934       H  0.30651061  0.74015823  0.18696497     0.10900
H1935       H  0.34081782  0.72792323  0.21385558     0.10800
H1936       H  0.35690818  0.74258114  0.20017030     0.11300
H1937       H  0.30757681  0.70202871  0.23956721     0.11400
H1938       H  0.28909356  0.68794868  0.25116364     0.11300
H1939       H  0.26023650  0.69852337  0.21784007     0.11500
H1940       H  0.27865075  0.71249651  0.20627233     0.10300
C1941       C  0.55113603  0.77280025  0.15233479    -0.03500
C1942       C  0.54496762  0.76776352  0.16480988    -0.09300
C1943       C  0.53037965  0.76606338  0.16574396    -0.16900
C1944       C  0.52184088  0.76928553  0.15420218     0.25200
C1945       C  0.52790573  0.77416306  0.14172344    -0.18600
C1946       C  0.54244249  0.77592420  0.14078510    -0.07500
C1947       C  0.50681089  0.76808930  0.15516357    -0.13900
C1948       C  0.49414745  0.76809249  0.15510230    -0.13700
C1949       C  0.47914158  0.76944664  0.15399483     0.25100
C1950       C  0.47349126  0.77795810  0.14344854    -0.19100
C1951       C  0.45898056  0.77984894  0.14248068    -0.07500
C1952       C  0.44983958  0.77326171  0.15209345    -0.03600
C1953       C  0.45563136  0.76454417  0.16257529    -0.08900
C1954       C  0.47020449  0.76266661  0.16351606    -0.16600
H1955       H  0.55135771  0.76537561  0.17391794     0.11600
H1956       H  0.52576134  0.76236252  0.17548420     0.10900
H1957       H  0.52137832  0.77670286  0.13273398     0.10800
H1958       H  0.54683965  0.77965557  0.13097282     0.11300
H1959       H  0.48032834  0.78324408  0.13601419     0.11400
H1960       H  0.45502631  0.78653167  0.13419031     0.11300
H1961       H  0.44898392  0.75929431  0.17016335     0.11500
H1962       H  0.47449515  0.75605188  0.17173540     0.10300
C1963       C  0.65852836  0.10707861  0.81537893    -0.03500
C1964       C  0.65362194  0.11668674  0.80523417    -0.09300
C1965       C  0.66305374  0.12504213  0.79766094    -0.16900
C1966       C  0.67750893  0.12394598  0.80010397     0.25200
C1967       C  0.68250781  0.11456726  0.81026159    -0.18600
C1968       C  0.67310503  0.10619783  0.81785397    -0.07500
C1969       C  0.68724114  0.13232757  0.79211051    -0.13900
C1970       C  0.69568125  0.13916069  0.78557304    -0.13700
C1971       C  0.70625682  0.14708829  0.77821560     0.25100
C1972       C  0.71964280  0.14855779  0.78414161    -0.19100
C1973       C  0.73004571  0.15608991  0.77704376    -0.07500
C1974       C  0.72717109  0.16224310  0.76394264    -0.03600
C1975       C  0.71369912  0.16086239  0.75805923    -0.08900
C1976       C  0.70328247  0.15326436  0.76516610    -0.16600
H1977       H  0.64252817  0.11770630  0.80298140     0.11600
H1978       H  0.65907009  0.13229026  0.78983005     0.10900
H1979       H  0.69368931  0.11367012  0.81226999     0.10800
H1980       H  0.67732608  0.09905476  0.82561682     0.11300
H1981       H  0.72205885  0.14381726  0.79421676     0.11400
H1982       H  0.74040719  0.15702554  0.78168632     0.11300
H1983       H  0.71131836  0.16558309  0.74797391     0.11500
H1984       H  0.69295127  0.15217950  0.76049025     0.10300
C1985       C  0.27367301  0.16378218  0.76214122    -0.03500
C1986       C  0.28688121  0.16267996  0.75561453    -0.09300
C1987       C  0.29760638  0.15485951  0.76195464    -0.16900
C1988       C  0.29518917  0.14818331  0.77486861     0.25200
C1989       C  0.28209522  0.14943697  0.78146895    -0.18600
C1990       C  0.27139153  0.15719629  0.77514135    -0.07500
C1991       C  0.30599690  0.13992415  0.78142688    -0.13900
C1992       C  0.31436619  0.13276409  0.78766431    -0.13700
C1993       C  0.32363400  0.12404932  0.79580404     0.25100
C1994       C  0.31804007  0.11475245  0.80572413    -0.19100
C1995       C  0.32695810  0.10635907  0.81381797    -0.07500
C1996       C  0.34164690  0.10714435  0.81210850    -0.03600
C1997       C  0.34715209  0.11655502  0.80206951    -0.08900
C1998       C  0.33819486  0.12494256  0.79398753    -0.16600
H1999       H  0.28879275  0.16772505  0.74558500     0.11600
H2000       H  0.30771442  0.15394809  0.75677076     0.10900
H2001       H  0.28012128  0.14430596  0.79145146     0.10800
H2002       H  0.26122791  0.15788589  0.78025263     0.11300
H2003       H  0.30676605  0.11401445  0.80723463     0.11400
H2004       H  0.32226939  0.09932000  0.82141003     0.11300
H2005       H  0.35835534  0.11750110  0.80039228     0.11500
H2006       H  0.34263045  0.13213765  0.78634634     0.10300
C2007       C  0.44870636  0.07381697  0.84092263    -0.03500
C2008       C  0.45754808  0.06369799  0.84709900    -0.09300
C2009       C  0.47205768  0.06419739  0.84498312    -0.16900
C2010       C  0.47795080  0.07478736  0.83667706     0.25200
C2011       C  0.46929900  0.08488189  0.83042904    -0.18600
C2012       C  0.45475475  0.08440799  0.83252437    -0.07500
C2013       C  0.49293118  0.07544487  0.83502488    -0.13900
C2014       C  0.50557810  0.07545400  0.83477407    -0.13700
C2015       C  0.52060146  0.07475581  0.83592699     0.25100
C2016       C  0.52899450  0.08601485  0.83155226    -0.19100
C2017       C  0.54356448  0.08553478  0.83352145    -0.07500
C2018       C  0.54984126  0.07381273  0.83998361    -0.03600
C2019       C  0.54129840  0.06248682  0.84415074    -0.08900
C2020       C  0.52678485  0.06296640  0.84212199    -0.16600
H2021       H  0.45332970  0.05532582  0.85352502     0.11600
H2022       H  0.47869684  0.05635226  0.84989288     0.10900
H2023       H  0.47379596  0.09317113  0.82403860     0.10800
H2024       H  0.44832882  0.09242723  0.82767326     0.11300
H2025       H  0.52426702  0.09522648  0.82681741     0.11400
H2026       H  0.54984207  0.09444904  0.83027291     0.11300
H2027       H  0.54578888  0.05321857  0.84896322     0.11500
H2028       H  0.52035902  0.05420515  0.84555292     0.10300
C2029       C  0.65828024  0.10859642  0.18343407    -0.03500
C2030       C  0.67277656  0.10555504  0.18343772    -0.09300
C2031       C  0.68205050  0.11328367  0.19185052    -0.16900
C2032       C  0.67700265  0.12416008  0.20038182     0.25200
C2033       C  0.66262820  0.12725446  0.20049501    -0.18600
C2034       C  0.65333196  0.11954602  0.19210219    -0.07500
C2035       C  0.68662101  0.13234880  0.20874522    -0.13900
C2036       C  0.69498543  0.13930204  0.21527534    -0.13700
C2037       C  0.70556873  0.14753219  0.22232074     0.25100
C2038       C  0.70279414  0.15380957  0.23537683    -0.19100
C2039       C  0.71326641  0.16161685  0.24218005    -0.07500
C2040       C  0.72660947  0.16310580  0.23599886    -0.03600
C2041       C  0.72923483  0.15696215  0.22283557    -0.08900
C2042       C  0.71877732  0.14922084  0.21604258    -0.16600
H2043       H  0.67700969  0.09718575  0.17701052     0.11600
H2044       H  0.69317171  0.11080618  0.19165767     0.10900
H2045       H  0.65860493  0.13569247  0.20700910     0.10800
H2046       H  0.64230625  0.12230386  0.19235605     0.11300
H2047       H  0.69259721  0.15259831  0.24031829     0.11400
H2048       H  0.71106104  0.16633291  0.25231305     0.11300
H2049       H  0.73948193  0.15797632  0.21795207     0.11500
H2050       H  0.72103521  0.14444008  0.20594421     0.10300
C2051       C  0.33941688  0.10712985  0.18312584    -0.03500
C2052       C  0.32476955  0.10502520  0.18243666    -0.09300
C2053       C  0.31567140  0.11290771  0.19089151    -0.16900
C2054       C  0.32105634  0.12298672  0.20015566     0.25200
C2055       C  0.33557332  0.12510344  0.20101162    -0.18600
C2056       C  0.34469127  0.11724796  0.19258096    -0.07500
C2057       C  0.31168325  0.13126873  0.20866101    -0.13900
C2058       C  0.30361693  0.13817944  0.21557366    -0.13700
C2059       C  0.29344756  0.14613325  0.22344633     0.25100
C2060       C  0.29697738  0.15924807  0.22916966    -0.19100
C2061       C  0.28685927  0.16706753  0.23646713    -0.07500
C2062       C  0.27314529  0.16181945  0.23799366    -0.03600
C2063       C  0.26974227  0.14861174  0.23237553    -0.08900
C2064       C  0.27983904  0.14081266  0.22514211    -0.16600
H2065       H  0.32026833  0.09733670  0.17537742     0.11600
H2066       H  0.30442945  0.11117810  0.19015826     0.10900
H2067       H  0.33985250  0.13288572  0.20814966     0.10800
H2068       H  0.35584558  0.11924191  0.19346668     0.11300
H2069       H  0.30749022  0.16345300  0.22790509     0.11400
H2070       H  0.28964440  0.17721827  0.24079983     0.11300
H2071       H  0.25919295  0.14444405  0.23346058     0.11500
H2072       H  0.27699634  0.13069450  0.22075318     0.10300
C2073       C  0.54926997  0.08007168  0.15413469    -0.03500
C2074       C  0.54347810  0.09222241  0.16030347    -0.09300
C2075       C  0.52887409  0.09410392  0.16083426    -0.16900
C2076       C  0.51990209  0.08385068  0.15527029     0.25200
C2077       C  0.52556145  0.07165180  0.14934205    -0.18600
C2078       C  0.54010881  0.06975975  0.14877893    -0.07500
C2079       C  0.50488596  0.08576966  0.15533152    -0.13900
C2080       C  0.49223579  0.08623299  0.15457116    -0.13700
C2081       C  0.47722841  0.08534122  0.15280428     0.25100
C2082       C  0.47163688  0.07500245  0.14398260    -0.19100
C2083       C  0.45710336  0.07371116  0.14237568    -0.07500
C2084       C  0.44787492  0.08276157  0.14959542    -0.03600
C2085       C  0.45361025  0.09322802  0.15837248    -0.08900
C2086       C  0.46820061  0.09449994  0.15995978    -0.16600
H2087       H  0.55018805  0.10040033  0.16447843     0.11600
H2088       H  0.52459887  0.10359731  0.16545108     0.10900
H2089       H  0.51871412  0.06361870  0.14505170     0.10800
H2090       H  0.54412131  0.06018951  0.14413627     0.11300
H2091       H  0.47852873  0.06783636  0.13841022     0.11400
H2092       H  0.45317902  0.06547248  0.13560389     0.11300
H2093       H  0.44688149  0.10045045  0.16402111     0.11500
H2094       H  0.47242331  0.10256173  0.16680989     0.10300
C2095       C  0.23768831  0.65363172  0.23433350    -0.03500
C2096       C  0.24439476  0.64054066  0.23304841    -0.09300
C2097       C  0.23793455  0.62963579  0.22555657    -0.16900
C2098       C  0.22470012  0.63172642  0.21941313     0.25200
C2099       C  0.21794045  0.64470495  0.22082720    -0.18600
C2100       C  0.22439935  0.65559679  0.22822514    -0.07500
C2101       C  0.21801847  0.62074496  0.21144111    -0.13900
C2102       C  0.21176270  0.61229060  0.20436710    -0.13700
C2103       C  0.20374271  0.60298738  0.19553211     0.25100
C2104       C  0.19092970  0.60750787  0.18988365    -0.19100
C2105       C  0.18319331  0.59866007  0.18105850    -0.07500
C2106       C  0.18815131  0.58512026  0.17780984    -0.03600
C2107       C  0.20102739  0.58064829  0.18359013    -0.08900
C2108       C  0.20877674  0.58954378  0.19237227    -0.16600
H2109       H  0.25460930  0.63882356  0.23777672     0.11600
H2110       H  0.24325753  0.61962699  0.22451634     0.10900
H2111       H  0.20771411  0.64644018  0.21611158     0.10800
H2112       H  0.21909795  0.66563333  0.22910127     0.11300
H2113       H  0.18692641  0.61789537  0.19228146     0.11400
H2114       H  0.17326646  0.60238669  0.17693768     0.11300
H2115       H  0.20521282  0.57034477  0.18122471     0.11500
H2116       H  0.21870913  0.58595645  0.19664704     0.10300
C2117       C  0.23714627  0.20015912  0.23683210    -0.03500
C2118       C  0.23036641  0.19700087  0.22410664    -0.09300
C2119       C  0.22273709  0.20731843  0.21699691    -0.16900
C2120       C  0.22181699  0.22092259  0.22251099     0.25200
C2121       C  0.22878581  0.22422963  0.23508118    -0.18600
C2122       C  0.23646378  0.21389048  0.24221002    -0.07500
C2123       C  0.21350170  0.23132360  0.21531181    -0.13900
C2124       C  0.20629135  0.23955307  0.20890199    -0.13700
C2125       C  0.19760663  0.24903281  0.20090142     0.25100
C2126       C  0.20045655  0.26344504  0.20092125    -0.19100
C2127       C  0.19217986  0.27262203  0.19296061    -0.07500
C2128       C  0.18089399  0.26751363  0.18482486    -0.03600
C2129       C  0.17809032  0.25298165  0.18494597    -0.08900
C2130       C  0.18638949  0.24382935  0.19292138    -0.16600
H2131       H  0.23076258  0.18644893  0.21984686     0.11600
H2132       H  0.21740533  0.20463960  0.20728819     0.10900
H2133       H  0.22815880  0.23473143  0.23943376     0.10800
H2134       H  0.24166696  0.21649678  0.25200085     0.11300
H2135       H  0.20913000  0.26759401  0.20703899     0.11400
H2136       H  0.19475717  0.28368111  0.19313896     0.11300
H2137       H  0.16948876  0.24861537  0.17892695     0.11500
H2138       H  0.18407769  0.23268125  0.19282707     0.10300
C2139       C  0.15257471  0.37591072  0.15420917    -0.03500
C2140       C  0.14304226  0.38519905  0.14774226    -0.09300
C2141       C  0.14512615  0.39971055  0.14841677    -0.16900
C2142       C  0.15673740  0.40521891  0.15556328     0.25200
C2143       C  0.16619836  0.39613032  0.16221234    -0.18600
C2144       C  0.16413269  0.38157111  0.16156056    -0.07500
C2145       C  0.15888667  0.42019810  0.15579597    -0.13900
C2146       C  0.15958534  0.43283599  0.15513163    -0.13700
C2147       C  0.15889543  0.44785312  0.15341473     0.25100
C2148       C  0.17004454  0.45651110  0.15759531    -0.19100
C2149       C  0.16912797  0.47109940  0.15581323    -0.07500
C2150       C  0.15703900  0.47719252  0.14979712    -0.03600
C2151       C  0.14594376  0.46833456  0.14561329    -0.08900
C2152       C  0.14688203  0.45381429  0.14741195    -0.16600
H2153       H  0.13394459  0.38133049  0.14212933     0.11600
H2154       H  0.13769937  0.40664943  0.14327250     0.10900
H2155       H  0.17522490  0.40027896  0.16779056     0.10800
H2156       H  0.17171707  0.37480225  0.16664475     0.11300
H2157       H  0.17942755  0.45200117  0.16221742     0.11400
H2158       H  0.17791409  0.47754368  0.15907355     0.11300
H2159       H  0.13642292  0.47255400  0.14106198     0.11500
H2160       H  0.13818569  0.44721810  0.14413634     0.10300
C2161       C  0.31877186  0.24061159  0.15881754    -0.03500
C2162       C  0.30875203  0.23124340  0.15320162    -0.09300
C2163       C  0.30071917  0.22268441  0.16205343    -0.16900
C2164       C  0.30257100  0.22334899  0.17662289     0.25200
C2165       C  0.31252983  0.23254599  0.18232265    -0.18600
C2166       C  0.32057706  0.24111322  0.17350619    -0.07500
C2167       C  0.29403816  0.21490898  0.18581629    -0.13900
C2168       C  0.28698514  0.20852363  0.19418302    -0.13700
C2169       C  0.27888408  0.20189336  0.20508942     0.25100
C2170       C  0.27758654  0.20856495  0.21813876    -0.19100
C2171       C  0.27006640  0.20215384  0.22897275    -0.07500
C2172       C  0.26371444  0.18901094  0.22686682    -0.03600
C2173       C  0.26482092  0.18242838  0.21368589    -0.08900
C2174       C  0.27244690  0.18883554  0.20283955    -0.16600
H2175       H  0.30697918  0.23053682  0.14199455     0.11600
H2176       H  0.29299883  0.21562676  0.15753547     0.10900
H2177       H  0.31402541  0.23315445  0.19360707     0.10800
H2178       H  0.32818378  0.24809098  0.17826466     0.11300
H2179       H  0.28251087  0.21866815  0.21998158     0.11400
H2180       H  0.26933608  0.20734721  0.23909067     0.11300
H2181       H  0.25991854  0.17231710  0.21188103     0.11500
H2182       H  0.27338323  0.18359859  0.19276300     0.10300
C2183       C  0.31557510  0.24639225  0.84097272    -0.03500
C2184       C  0.30956525  0.23356816  0.84524939    -0.09300
C2185       C  0.30175201  0.22545176  0.83579929    -0.16900
C2186       C  0.29977863  0.23003793  0.82196186     0.25200
C2187       C  0.30569510  0.24278139  0.81759234    -0.18600
C2188       C  0.31355717  0.25090125  0.82701521    -0.07500
C2189       C  0.29180137  0.22160248  0.81222834    -0.13900
C2190       C  0.28533820  0.21451692  0.80392109    -0.13700
C2191       C  0.27804199  0.20620914  0.79356623     0.25100
C2192       C  0.28365728  0.20491917  0.78001706    -0.19100
C2193       C  0.27652812  0.19716648  0.76978921    -0.07500
C2194       C  0.26369190  0.19061337  0.77298504    -0.03600
C2195       C  0.25818290  0.19171551  0.78665319    -0.08900
C2196       C  0.26532539  0.19952385  0.79689911    -0.16600
H2197       H  0.31101829  0.22968132  0.85584214     0.11600
H2198       H  0.29728016  0.21557435  0.83928161     0.10900
H2199       H  0.30423852  0.24644145  0.80689897     0.10800
H2200       H  0.31792484  0.26075111  0.82337972     0.11300
H2201       H  0.29347947  0.21002755  0.77731739     0.11400
H2202       H  0.28088746  0.19646409  0.75928019     0.11300
H2203       H  0.24831136  0.18668944  0.78929937     0.11500
H2204       H  0.26089403  0.20043420  0.80736092     0.10300
C2205       C  0.34734173  0.27316661  0.95007611    -0.03500
C2206       C  0.33943735  0.26220664  0.95613164    -0.09300
C2207       C  0.33823559  0.26105571  0.97077475    -0.16900
C2208       C  0.34487890  0.27085505  0.97951982     0.25200
C2209       C  0.35268067  0.28180381  0.97359892    -0.18600
C2210       C  0.35390955  0.28296864  0.95901882    -0.07500
C2211       C  0.34403647  0.26969032  0.99458417    -0.13900
C2212       C  0.34439878  0.26955442  0.00725705    -0.13700
C2213       C  0.34607213  0.27023236  0.02228062     0.25100
C2214       C  0.35631479  0.27907898  0.02801786    -0.19100
C2215       C  0.35827837  0.27967792  0.04256194    -0.07500
C2216       C  0.35000170  0.27141083  0.05163860    -0.03600
C2217       C  0.33965242  0.26258982  0.04574296    -0.08900
C2218       C  0.33771283  0.26201373  0.03116182    -0.16600
H2219       H  0.33430425  0.25443050  0.94960917     0.11600
H2220       H  0.33220361  0.25249989  0.97526208     0.10900
H2221       H  0.35786764  0.28944874  0.98027210     0.10800
H2222       H  0.35995303  0.29163214  0.95482923     0.11300
H2223       H  0.36284208  0.28549851  0.02122815     0.11400
H2224       H  0.36629129  0.28664687  0.04660489     0.11300
H2225       H  0.33307758  0.25604770  0.05231692     0.11500
H2226       H  0.32975160  0.25511609  0.02682379     0.10300
C2227       C  0.22728398  0.19141267  0.26472915    -0.03500
C2228       C  0.21384346  0.19323117  0.25889212    -0.09300
C2229       C  0.20383190  0.20144958  0.26587311    -0.16900
C2230       C  0.20715613  0.20774647  0.27878019     0.25200
C2231       C  0.22044020  0.20570964  0.28474728    -0.18600
C2232       C  0.23046055  0.19761033  0.27774743    -0.07500
C2233       C  0.19704918  0.21640024  0.28593179    -0.13900
C2234       C  0.18892089  0.22372370  0.29230784    -0.13700
C2235       C  0.17937479  0.23234888  0.30023036     0.25100
C2236       C  0.18424506  0.24004271  0.31178765    -0.19100
C2237       C  0.17490418  0.24818239  0.31969723    -0.07500
C2238       C  0.16054359  0.24868927  0.31615844    -0.03600
C2239       C  0.15579291  0.24099530  0.30443384    -0.08900
C2240       C  0.16515827  0.23288973  0.29653173    -0.16600
H2241       H  0.21120171  0.18843904  0.24890314     0.11600
H2242       H  0.19355507  0.20294824  0.26119386     0.10900
H2243       H  0.22309960  0.21050312  0.29473998     0.10800
H2244       H  0.24078898  0.19631388  0.28237578     0.11300
H2245       H  0.19524212  0.23966509  0.31475198     0.11400
H2246       H  0.17892342  0.25386725  0.32869441     0.11300
H2247       H  0.14486349  0.24124459  0.30129385     0.11500
H2248       H  0.16129554  0.22699104  0.28757798     0.10300
C2249       C  0.77396406  0.19034171  0.26286781    -0.03500
C2250       C  0.78744046  0.18439006  0.26383238    -0.09300
C2251       C  0.79805354  0.19132722  0.27129856    -0.16900
C2252       C  0.79527240  0.20428088  0.27773687     0.25200
C2253       C  0.78193612  0.21036618  0.27652755    -0.18600
C2254       C  0.77133160  0.20342859  0.26914343    -0.07500
C2255       C  0.80590460  0.21123960  0.28591730    -0.13900
C2256       C  0.81426110  0.21744041  0.29314014    -0.13700
C2257       C  0.82374114  0.22523707  0.30196198     0.25100
C2258       C  0.81843654  0.23508116  0.31151114    -0.19100
C2259       C  0.82760620  0.24291026  0.31990734    -0.07500
C2260       C  0.84225903  0.24102069  0.31885713    -0.03600
C2261       C  0.84745622  0.23094544  0.30931002    -0.08900
C2262       C  0.83825236  0.22313044  0.30092651    -0.16600
H2263       H  0.78964657  0.17433720  0.25897016     0.11600
H2264       H  0.80835301  0.18654356  0.27217083     0.10900
H2265       H  0.77968079  0.22038155  0.28146065     0.10800
H2266       H  0.76098224  0.20814149  0.26849421     0.11300
H2267       H  0.80720092  0.23677150  0.31241078     0.11400
H2268       H  0.82314393  0.25047531  0.32712210     0.11300
H2269       H  0.85861599  0.22911060  0.30817197     0.11500
H2270       H  0.84246416  0.21550980  0.29357501     0.10300
C2271       C  0.95040259  0.27481780  0.34306652    -0.03500
C2272       C  0.95916400  0.28638133  0.34591766    -0.09300
C2273       C  0.97370508  0.28528203  0.34430176    -0.16900
C2274       C  0.97969886  0.27263512  0.33982761     0.25200
C2275       C  0.97109859  0.26109245  0.33683167    -0.18600
C2276       C  0.95651393  0.26217845  0.33840083    -0.07500
C2277       C  0.99472219  0.27147710  0.33895374    -0.13900
C2278       C  0.00736960  0.27140604  0.33936202    -0.13700
C2279       C  0.02230629  0.27239708  0.34128446     0.25100
C2280       C  0.03158686  0.26619163  0.33170410    -0.19100
C2281       C  0.04611397  0.26735550  0.33373496    -0.07500
C2282       C  0.05150120  0.27476952  0.34537786    -0.03600
C2283       C  0.04202004  0.28091348  0.35493893    -0.08900
C2284       C  0.02754890  0.27973451  0.35288585    -0.16600
H2285       H  0.95482857  0.29631102  0.34936662     0.11600
H2286       H  0.98029349  0.29426745  0.34667787     0.10900
H2287       H  0.97566718  0.25122255  0.33345305     0.10800
H2288       H  0.95009196  0.25304852  0.33622517     0.11300
H2289       H  0.02760877  0.26050574  0.32266616     0.11400
H2290       H  0.05306161  0.26256386  0.32610662     0.11300
H2291       H  0.04570221  0.28658182  0.36408096     0.11500
H2292       H  0.02043028  0.28455967  0.36037204     0.10300
C2293       C  0.26368398  0.15368319  0.26570739    -0.03500
C2294       C  0.27665126  0.15685241  0.27200458    -0.09300
C2295       C  0.28384472  0.14666646  0.27972886    -0.16900
C2296       C  0.27817047  0.13318157  0.28122157     0.25200
C2297       C  0.26525124  0.12991783  0.27489713    -0.18600
C2298       C  0.25802528  0.14013404  0.26714289    -0.07500
C2299       C  0.28562957  0.12281126  0.28934438    -0.13900
C2300       C  0.29217533  0.11452222  0.29636208    -0.13700
C2301       C  0.30012648  0.10492993  0.30496872     0.25100
C2302       C  0.30018612  0.09055651  0.30190375    -0.19100
C2303       C  0.30779637  0.08123392  0.31035271    -0.07500
C2304       C  0.31549306  0.08616094  0.32201835    -0.03600
C2305       C  0.31539808  0.10066699  0.32495455    -0.08900
C2306       C  0.30777450  0.10996082  0.31648972    -0.16600
H2307       H  0.28112767  0.16727422  0.27100828     0.11600
H2308       H  0.29380751  0.14932146  0.28457967     0.10900
H2309       H  0.26076351  0.11951264  0.27599102     0.10800
H2310       H  0.24804775  0.13752812  0.26231084     0.11300
H2311       H  0.29433400  0.08654253  0.29298646     0.11400
H2312       H  0.30766931  0.07020156  0.30764675     0.11300
H2313       H  0.32110155  0.10489156  0.33383910     0.11500
H2314       H  0.30780707  0.12107440  0.31896823     0.10300
C2315       C  0.31551029  0.76877422  0.31760367    -0.03500
C2316       C  0.30917189  0.77406011  0.30528836    -0.09300
C2317       C  0.30136138  0.76524392  0.29646679    -0.16900
C2318       C  0.29975500  0.75102295  0.29979550     0.25200
C2319       C  0.30606995  0.74563384  0.31194331    -0.18600
C2320       C  0.31388681  0.75441806  0.32077968    -0.07500
C2321       C  0.29151277  0.74193596  0.29090251    -0.13900
C2322       C  0.28466721  0.73374995  0.28404043    -0.13700
C2323       C  0.27678724  0.72310313  0.27669995     0.25100
C2324       C  0.27553319  0.70971434  0.28264733    -0.19100
C2325       C  0.26832580  0.69912477  0.27549932    -0.07500
C2326       C  0.26225217  0.70179946  0.26232005    -0.03600
C2327       C  0.26325443  0.71532532  0.25648749    -0.08900
C2328       C  0.27055467  0.72593118  0.26363868    -0.16600
H2329       H  0.31023731  0.78498744  0.30237736     0.11600
H2330       H  0.29654383  0.76953517  0.28707653     0.10900
H2331       H  0.30488734  0.73463404  0.31463622     0.10800
H2332       H  0.31851639  0.74993641  0.33014573     0.11300
H2333       H  0.28028570  0.70740973  0.29274371     0.11400
H2334       H  0.26767884  0.68874231  0.28012253     0.11300
H2335       H  0.25856665  0.71757549  0.24635654     0.11500
H2336       H  0.27143722  0.73626501  0.25894864     0.10300
C2337       C  0.34823481  0.87590573  0.34766813    -0.03500
C2338       C  0.34096051  0.88189953  0.33623589    -0.09300
C2339       C  0.33987395  0.89651666  0.33489230    -0.16900
C2340       C  0.34601788  0.90533173  0.34495071     0.25200
C2341       C  0.35323120  0.89947831  0.35634587    -0.18600
C2342       C  0.35434186  0.88490886  0.35770764    -0.07500
C2343       C  0.34510761  0.92039087  0.34369113    -0.13900
C2344       C  0.34514174  0.93306987  0.34364809    -0.13700
C2345       C  0.34616779  0.94813163  0.34481227     0.25100
C2346       C  0.35744146  0.95404418  0.35216731    -0.19100
C2347       C  0.35839712  0.96859615  0.35381837    -0.07500
C2348       C  0.34805113  0.97753178  0.34814241    -0.03600
C2349       C  0.33680392  0.97148323  0.34062039    -0.08900
C2350       C  0.33587112  0.95687919  0.33898715    -0.16600
H2351       H  0.33618858  0.87535197  0.32825468     0.11600
H2352       H  0.33428178  0.90092925  0.32600332     0.10900
H2353       H  0.35801719  0.90619610  0.36420960     0.10800
H2354       H  0.35991230  0.88077079  0.36671065     0.11300
H2355       H  0.36548021  0.94738127  0.35672282     0.11400
H2356       H  0.36728006  0.97276693  0.35955452     0.11300
H2357       H  0.32861338  0.97796387  0.33613498     0.11500
H2358       H  0.32706842  0.95241765  0.33329371     0.10300
C2359       C  0.26460186  0.66523249  0.22473212    -0.03500
C2360       C  0.25921584  0.66448741  0.21100649    -0.09300
C2361       C  0.26685845  0.65764014  0.20044130    -0.16900
C2362       C  0.27992469  0.65156176  0.20354530     0.25200
C2363       C  0.28537462  0.65246201  0.21718323    -0.18600
C2364       C  0.27775969  0.65926531  0.22771913    -0.07500
C2365       C  0.28761605  0.64396783  0.19296018    -0.13900
C2366       C  0.29430724  0.63700698  0.18474600    -0.13700
C2367       C  0.30234161  0.62809116  0.17553319     0.25100
C2368       C  0.31256684  0.61910894  0.18110569    -0.19100
C2369       C  0.32007150  0.61006833  0.17226576    -0.07500
C2370       C  0.31744815  0.60989302  0.15769481    -0.03600
C2371       C  0.30723172  0.61908799  0.15219241    -0.08900
C2372       C  0.29973100  0.62810288  0.16106072    -0.16600
H2373       H  0.24909701  0.66909274  0.20854946     0.11600
H2374       H  0.26253886  0.65697082  0.18991963     0.10900
H2375       H  0.29544169  0.64776490  0.21970839     0.10800
H2376       H  0.28202866  0.65974558  0.23827309     0.11300
H2377       H  0.31467711  0.61902460  0.19230726     0.11400
H2378       H  0.32792477  0.60326775  0.17688154     0.11300
H2379       H  0.30483166  0.61921129  0.14107522     0.11500
H2380       H  0.29180493  0.63498480  0.15664180     0.10300
C2381       C  0.31718579  0.60810822  0.84043476    -0.03500
C2382       C  0.30615177  0.61666782  0.84538963    -0.09300
C2383       C  0.29792423  0.62447275  0.83601940    -0.16900
C2384       C  0.30056850  0.62387034  0.82155415     0.25200
C2385       C  0.31146661  0.61536412  0.81649658    -0.18600
C2386       C  0.31970796  0.60753626  0.82584346    -0.07500
C2387       C  0.29217169  0.63201560  0.81189928    -0.13900
C2388       C  0.28536688  0.63875261  0.80356126    -0.13700
C2389       C  0.27761955  0.64655309  0.79311475     0.25100
C2390       C  0.27578472  0.64089034  0.77964693    -0.19100
C2391       C  0.26872074  0.64855722  0.76930044    -0.07500
C2392       C  0.26335007  0.66197315  0.77229824    -0.03600
C2393       C  0.26497888  0.66752932  0.78589810    -0.08900
C2394       C  0.27214906  0.65987573  0.79623789    -0.16600
H2395       H  0.30377357  0.61732956  0.85649316     0.11600
H2396       H  0.28950338  0.63099276  0.84007095     0.10900
H2397       H  0.31363338  0.61481674  0.80531806     0.10800
H2398       H  0.32811944  0.60116898  0.82159733     0.11300
H2399       H  0.27994468  0.63060186  0.77709826     0.11400
H2400       H  0.26754410  0.64409594  0.75888174     0.11300
H2401       H  0.26076891  0.67778538  0.78845779     0.11500
H2402       H  0.27348147  0.66436393  0.80662611     0.10300
C2403       C  0.35340996  0.58653495  0.94926065    -0.03500
C2404       C  0.36503099  0.58301206  0.95771441    -0.09300
C2405       C  0.36411404  0.58374757  0.97235461    -0.16900
C2406       C  0.35158924  0.58801406  0.97877668     0.25200
C2407       C  0.34009680  0.59197694  0.97046756    -0.18600
C2408       C  0.34101034  0.59130294  0.95577826    -0.07500
C2409       C  0.35038229  0.58751211  0.99386311    -0.13900
C2410       C  0.34977066  0.58612675  0.00645843    -0.13700
C2411       C  0.34948671  0.58360793  0.02139025     0.25100
C2412       C  0.34078081  0.59158959  0.03015803    -0.19100
C2413       C  0.34054962  0.58905945  0.04465869    -0.07500
C2414       C  0.34904268  0.57848458  0.05061003    -0.03600
C2415       C  0.35770648  0.57048666  0.04164076    -0.08900
C2416       C  0.35791403  0.57304113  0.02716334    -0.16600
H2417       H  0.37481290  0.57953105  0.95304992     0.11600
H2418       H  0.37308930  0.58069535  0.97867492     0.10900
H2419       H  0.33033452  0.59527194  0.97533962     0.10800
H2420       H  0.33187162  0.59404645  0.94957988     0.11300
H2421       H  0.33416969  0.59976794  0.02579304     0.11400
H2422       H  0.33367961  0.59539553  0.05113444     0.11300
H2423       H  0.36442417  0.56229386  0.04573476     0.11500
H2424       H  0.36468127  0.56677358  0.02046672     0.10300
C2425       C  0.68298045  0.24566041  0.15879643    -0.03500
C2426       C  0.67944737  0.24477273  0.17315607    -0.09300
C2427       C  0.68769574  0.23686562  0.18242160    -0.16900
C2428       C  0.69960587  0.22974307  0.17750670     0.25200
C2429       C  0.70325302  0.23060261  0.16327441    -0.18600
C2430       C  0.69501418  0.23848384  0.15398232    -0.07500
C2431       C  0.70795409  0.22142185  0.18704038    -0.13900
C2432       C  0.71459418  0.21439300  0.19526254    -0.13700
C2433       C  0.72193002  0.20607516  0.20559608     0.25100
C2434       C  0.73510000  0.20017448  0.20255273    -0.19100
C2435       C  0.74220373  0.19229619  0.21277490    -0.07500
C2436       C  0.73623185  0.19037428  0.22616546    -0.03600
C2437       C  0.72295944  0.19616234  0.22905689    -0.08900
C2438       C  0.71585355  0.20394531  0.21883745    -0.16600
H2439       H  0.67024057  0.25004574  0.17725806     0.11600
H2440       H  0.68474024  0.23625600  0.19341487     0.10900
H2441       H  0.71245689  0.22515410  0.15934300     0.10800
H2442       H  0.69817190  0.23899661  0.14306447     0.11300
H2443       H  0.73989929  0.20173015  0.19233319     0.11400
H2444       H  0.75240808  0.18786705  0.21033733     0.11300
H2445       H  0.71821991  0.19483589  0.23933680     0.11500
H2446       H  0.70567471  0.20842807  0.22131517     0.10300
C2447       C  0.68697795  0.24803923  0.84064493    -0.03500
C2448       C  0.68640859  0.25011935  0.82598950    -0.09300
C2449       C  0.69409338  0.24148443  0.81690620    -0.16900
C2450       C  0.70245864  0.23067982  0.82232328     0.25200
C2451       C  0.70323367  0.22860377  0.83684912    -0.18600
C2452       C  0.69556798  0.23721048  0.84595408    -0.07500
C2453       C  0.71003664  0.22156245  0.81296199    -0.13900
C2454       C  0.71607164  0.21394681  0.80484525    -0.13700
C2455       C  0.72282539  0.20521311  0.79454169     0.25100
C2456       C  0.73547007  0.19833270  0.79768164    -0.19100
C2457       C  0.74229902  0.19042450  0.78732370    -0.07500
C2458       C  0.73650639  0.18942145  0.77378308    -0.03600
C2459       C  0.72366264  0.19602842  0.77082452    -0.08900
C2460       C  0.71686756  0.20391321  0.78115267    -0.16600
H2461       H  0.68002185  0.25835785  0.82147124     0.11600
H2462       H  0.69343890  0.24318076  0.80565327     0.10900
H2463       H  0.70967829  0.22025365  0.84114149     0.10800
H2464       H  0.69630775  0.23520818  0.85711869     0.11300
H2465       H  0.74014465  0.19927266  0.80802971     0.11400
H2466       H  0.75220842  0.18535858  0.78972754     0.11300
H2467       H  0.71912023  0.19537179  0.76039467     0.11500
H2468       H  0.70709493  0.20919443  0.77862886     0.10300
C2469       C  0.65354454  0.27391937  0.94869072    -0.03500
C2470       C  0.64348380  0.27994394  0.95773399    -0.09300
C2471       C  0.64470239  0.27853540  0.97228905    -0.16900
C2472       C  0.65595419  0.27107973  0.97808120     0.25200
C2473       C  0.66597256  0.26491219  0.96924082    -0.18600
C2474       C  0.66478162  0.26630792  0.95462963    -0.07500
C2475       C  0.65719764  0.27011917  0.99312080    -0.13900
C2476       C  0.65723820  0.27033346  0.00579275    -0.13700
C2477       C  0.65613220  0.27169690  0.02081649     0.25100
C2478       C  0.66695272  0.26701458  0.02961631    -0.19100
C2479       C  0.66583051  0.26867560  0.04420557    -0.07500
C2480       C  0.65389424  0.27512266  0.05013484    -0.03600
C2481       C  0.64308645  0.27976619  0.04117263    -0.08900
C2482       C  0.64420061  0.27803699  0.02663052    -0.16600
H2483       H  0.63463100  0.28578257  0.95365874     0.11600
H2484       H  0.63688240  0.28334670  0.97904783     0.10900
H2485       H  0.67474531  0.25912610  0.97363143     0.10800
H2486       H  0.67275036  0.26153893  0.94806312     0.11300
H2487       H  0.67626949  0.26215316  0.02520836     0.11400
H2488       H  0.67438472  0.26509575  0.05079633     0.11300
H2489       H  0.63368935  0.28462376  0.04536791     0.11500
H2490       H  0.63576136  0.28169605  0.01990635     0.10300
C2491       C  0.31797784  0.08497814  0.68444311    -0.03500
C2492       C  0.32064016  0.09952159  0.68481874    -0.09300
C2493       C  0.31184337  0.10854559  0.69239199    -0.16900
C2494       C  0.30023556  0.10321703  0.69970468     0.25200
C2495       C  0.29747682  0.08877200  0.69942923    -0.18600
C2496       C  0.30628843  0.07970374  0.69187379    -0.07500
C2497       C  0.29125586  0.11264464  0.70748276    -0.13900
C2498       C  0.28422412  0.12112547  0.71379462    -0.13700
C2499       C  0.27648210  0.13198153  0.72101194     0.25100
C2500       C  0.26944861  0.12909692  0.73365878    -0.19100
C2501       C  0.26243128  0.13986512  0.74085959    -0.07500
C2502       C  0.26240489  0.15358194  0.73543856    -0.03600
C2503       C  0.26928725  0.15636132  0.72267581    -0.08900
C2504       C  0.27631777  0.14563084  0.71552496    -0.16600
H2505       H  0.32958147  0.10397484  0.67937393     0.11600
H2506       H  0.31411587  0.11970193  0.69255589     0.10900
H2507       H  0.28851161  0.08451776  0.70503496     0.10800
H2508       H  0.30382875  0.06860730  0.69175950     0.11300
H2509       H  0.26951365  0.11858124  0.73801239     0.11400
H2510       H  0.25713354  0.13756638  0.75068092     0.11300
H2511       H  0.26937462  0.16690375  0.71838448     0.11500
H2512       H  0.28174244  0.14800767  0.70578457     0.10300
C2513       C  0.31794449  0.76948759  0.68440184    -0.03500
C2514       C  0.30780015  0.77513381  0.69363214    -0.09300
C2515       C  0.29939912  0.76630742  0.70189349    -0.16900
C2516       C  0.30099382  0.75172127  0.70107149     0.25200
C2517       C  0.31104907  0.74599969  0.69197633    -0.18600
C2518       C  0.31945574  0.75478498  0.68371202    -0.07500
C2519       C  0.29235663  0.74253493  0.70948149    -0.13900
C2520       C  0.28558546  0.73409955  0.71611731    -0.13700
C2521       C  0.27826073  0.72303048  0.72342019     0.25100
C2522       C  0.28366623  0.70936118  0.72298887    -0.19100
C2523       C  0.27657722  0.69842112  0.72971883    -0.07500
C2524       C  0.26396177  0.70100575  0.73692383    -0.03600
C2525       C  0.25858441  0.71473855  0.73746293    -0.08900
C2526       C  0.26572508  0.72572645  0.73072355    -0.16600
H2527       H  0.30625071  0.78635188  0.69448607     0.11600
H2528       H  0.29164729  0.77086491  0.70889753     0.10900
H2529       H  0.31239462  0.73471631  0.69126127     0.10800
H2530       H  0.32713184  0.74998255  0.67683471     0.11300
H2531       H  0.29332543  0.70714004  0.71735808     0.11400
H2532       H  0.28082131  0.68787287  0.72917762     0.11300
H2533       H  0.24886548  0.71688618  0.74300633     0.11500
H2534       H  0.26144144  0.73626404  0.73112273     0.10300
C2535       C  0.35318162  0.87614855  0.65441182    -0.03500
C2536       C  0.36163362  0.88485842  0.64592016    -0.09300
C2537       C  0.36051507  0.89945460  0.64676774    -0.16900
C2538       C  0.35096992  0.90560388  0.65610232     0.25200
C2539       C  0.34260400  0.89710485  0.66470706    -0.18600
C2540       C  0.34369672  0.88247055  0.66388367    -0.07500
C2541       C  0.34984208  0.92064490  0.65673384    -0.13900
C2542       C  0.34965551  0.93329608  0.65663697    -0.13700
C2543       C  0.35048505  0.94835221  0.65588887     0.25100
C2544       C  0.34099406  0.95676778  0.66333561    -0.19100
C2545       C  0.34213264  0.97141675  0.66276750    -0.07500
C2546       C  0.35281084  0.97783187  0.65473703    -0.03600
C2547       C  0.36219152  0.96920402  0.64718658    -0.08900
C2548       C  0.36102328  0.95460051  0.64777291    -0.16600
H2549       H  0.36907740  0.88049731  0.63851955     0.11600
H2550       H  0.36707057  0.90595418  0.64008199     0.10900
H2551       H  0.33520472  0.90177927  0.67200780     0.10800
H2552       H  0.33705170  0.87618510  0.67063533     0.11300
H2553       H  0.33277232  0.95201620  0.66963758     0.11400
H2554       H  0.33467080  0.97764125  0.66867046     0.11300
H2555       H  0.37054329  0.97363261  0.64087683     0.11500
H2556       H  0.36842022  0.94816963  0.64195450     0.10300
C2557       C  0.15977854  0.24797783  0.68369817    -0.03500
C2558       C  0.15449965  0.23739846  0.69262856    -0.09300
C2559       C  0.16361534  0.22908319  0.70059451    -0.16900
C2560       C  0.17813783  0.23119313  0.69979607     0.25200
C2561       C  0.18352594  0.24174358  0.69107028    -0.18600
C2562       C  0.17442710  0.25008646  0.68307768    -0.07500
C2563       C  0.18750891  0.22246119  0.70783909    -0.13900
C2564       C  0.19560433  0.21527193  0.71442052    -0.13700
C2565       C  0.20588766  0.20717459  0.72199094     0.25100
C2566       C  0.21977479  0.21197571  0.72265246    -0.19100
C2567       C  0.22990520  0.20419979  0.72984185    -0.07500
C2568       C  0.22626749  0.19152528  0.73643714    -0.03600
C2569       C  0.21232573  0.18672238  0.73583334    -0.08900
C2570       C  0.20215384  0.19453953  0.72860750    -0.16600
H2571       H  0.14334346  0.23536721  0.69341538     0.11600
H2572       H  0.15932909  0.22094672  0.70731894     0.10900
H2573       H  0.19476963  0.24348835  0.69039950     0.10800
H2574       H  0.17891835  0.25814422  0.67643479     0.11300
H2575       H  0.22278069  0.22171577  0.71757308     0.11400
H2576       H  0.24063748  0.20800998  0.73021885     0.11300
H2577       H  0.20937365  0.17698017  0.74092370     0.11500
H2578       H  0.19142359  0.19073967  0.72815614     0.10300
C2579       C  0.84157302  0.24463149  0.68367396    -0.03500
C2580       C  0.82711001  0.24768882  0.68433882    -0.09300
C2581       C  0.81804209  0.23920628  0.69220359    -0.16900
C2582       C  0.82328280  0.22755013  0.69947325     0.25200
C2583       C  0.83762838  0.22439228  0.69886651    -0.18600
C2584       C  0.84672488  0.23287176  0.69103349    -0.07500
C2585       C  0.81390896  0.21890451  0.70758929    -0.13900
C2586       C  0.80560067  0.21208670  0.71429431    -0.13700
C2587       C  0.79495984  0.20467798  0.72205958     0.25100
C2588       C  0.79800668  0.19186267  0.72864580    -0.19100
C2589       C  0.78747972  0.18470967  0.73604027    -0.07500
C2590       C  0.77384781  0.19032918  0.73681376    -0.03600
C2591       C  0.77091692  0.20322332  0.73030074    -0.08900
C2592       C  0.78141887  0.21035382  0.72295571    -0.16600
H2593       H  0.82278489  0.25670223  0.67892813     0.11600
H2594       H  0.80694393  0.24176012  0.69264201     0.10900
H2595       H  0.84178533  0.21537520  0.70444091     0.10800
H2596       H  0.85775066  0.23010302  0.69066874     0.11300
H2597       H  0.80846559  0.18739477  0.72801485     0.11400
H2598       H  0.78988846  0.17477884  0.74104713     0.11300
H2599       H  0.76043331  0.20765494  0.73077886     0.11500
H2600       H  0.77895925  0.22025515  0.71790074     0.10300
C2601       C  0.94985438  0.27575682  0.65606849    -0.03500
C2602       C  0.95569493  0.26762203  0.66699032    -0.09300
C2603       C  0.97029373  0.26591076  0.66806669    -0.16900
C2604       C  0.97921780  0.27228913  0.65824537     0.25200
C2605       C  0.97351358  0.28037728  0.64738878    -0.18600
C2606       C  0.95898190  0.28210609  0.64629268    -0.07500
C2607       C  0.99424714  0.27068576  0.65910156    -0.13900
C2608       C  0.00691160  0.27031838  0.65852421    -0.13700
C2609       C  0.02189103  0.27103377  0.65643577     0.25100
C2610       C  0.02721763  0.27867907  0.64506247    -0.19100
C2611       C  0.04171529  0.27971948  0.64296142    -0.07500
C2612       C  0.05117750  0.27313070  0.65224344    -0.03600
C2613       C  0.04569266  0.26534455  0.66360666    -0.08900
C2614       C  0.03114612  0.26431949  0.66568184    -0.16600
H2615       H  0.94904739  0.26263264  0.67475779     0.11600
H2616       H  0.97460267  0.25963689  0.67653849     0.10900
H2617       H  0.98032311  0.28534886  0.63971492     0.10800
H2618       H  0.95497497  0.28834012  0.63768052     0.11300
H2619       H  0.02014333  0.28390915  0.63782409     0.11400
H2620       H  0.04541589  0.28575172  0.63406808     0.11300
H2621       H  0.05256951  0.26010879  0.67098325     0.11500
H2622       H  0.02713421  0.25835962  0.67452633     0.10300
C2623       C  0.68184507  0.08551193  0.31503863    -0.03500
C2624       C  0.69089147  0.07986464  0.30473943    -0.09300
C2625       C  0.69893487  0.08869398  0.29617526    -0.16900
C2626       C  0.69803907  0.10326453  0.29775840     0.25200
C2627       C  0.68897441  0.10900337  0.30782032    -0.18600
C2628       C  0.68092689  0.10021060  0.31639918    -0.07500
C2629       C  0.70666314  0.11238778  0.28936588    -0.13900
C2630       C  0.71383249  0.12064172  0.28298894    -0.13700
C2631       C  0.72206674  0.13133038  0.27622346     0.25100
C2632       C  0.72317686  0.14457933  0.28250187    -0.19100
C2633       C  0.73074529  0.15522326  0.27585452    -0.07500
C2634       C  0.73727595  0.15271308  0.26286072    -0.03600
C2635       C  0.73640471  0.13932945  0.25670931    -0.08900
C2636       C  0.72876896  0.12866844  0.26336585    -0.16600
H2637       H  0.69183910  0.06864381  0.30325892     0.11600
H2638       H  0.70592571  0.08415257  0.28840022     0.10900
H2639       H  0.68822997  0.12028961  0.30913584     0.10800
H2640       H  0.67415110  0.10499085  0.32418118     0.11300
H2641       H  0.71803684  0.14673125  0.29244913     0.11400
H2642       H  0.73129498  0.16551961  0.28068667     0.11300
H2643       H  0.74142318  0.13725486  0.24669193     0.11500
H2644       H  0.72797263  0.11843326  0.25844251     0.10300
C2645       C  0.68363023  0.76979230  0.31741322    -0.03500
C2646       C  0.68348020  0.75517427  0.31969031    -0.09300
C2647       C  0.69161932  0.74621347  0.31132556    -0.16900
C2648       C  0.70003604  0.75168677  0.30055684     0.25200
C2649       C  0.70028285  0.76618236  0.29818820    -0.18600
C2650       C  0.69215648  0.77517120  0.30653379    -0.07500
C2651       C  0.70841672  0.74238890  0.29200557    -0.13900
C2652       C  0.71523546  0.73407809  0.28525783    -0.13700
C2653       C  0.72298265  0.72329904  0.27794994     0.25100
C2654       C  0.72903945  0.72590643  0.26474766    -0.19100
C2655       C  0.73624815  0.71518099  0.25766124    -0.07500
C2656       C  0.73735386  0.70175841  0.26371084    -0.03600
C2657       C  0.73138242  0.69929047  0.27698898    -0.08900
C2658       C  0.72425967  0.70999074  0.28406236    -0.16600
H2659       H  0.67714263  0.75059296  0.32794759     0.11600
H2660       H  0.69135576  0.73499988  0.31327404     0.10900
H2661       H  0.70675226  0.77054847  0.28988100     0.10800
H2662       H  0.69256635  0.78630826  0.30435879     0.11300
H2663       H  0.72812093  0.73617074  0.25991607     0.11400
H2664       H  0.74084990  0.71728152  0.24745295     0.11300
H2665       H  0.73210862  0.68899446  0.28178835     0.11500
H2666       H  0.71962604  0.70784339  0.29425439     0.10300
C2667       C  0.65412872  0.87759562  0.34846473    -0.03500
C2668       C  0.64371614  0.88673013  0.35365584    -0.09300
C2669       C  0.64572398  0.90124868  0.35335157    -0.16900
C2670       C  0.65814842  0.90688576  0.34787350     0.25200
C2671       C  0.66854092  0.89793750  0.34253394    -0.18600
C2672       C  0.66653955  0.88336418  0.34279668    -0.07500
C2673       C  0.66010002  0.92186356  0.34793122    -0.13900
C2674       C  0.66058507  0.93449514  0.34857649    -0.13700
C2675       C  0.65983695  0.94952558  0.34985479     0.25100
C2676       C  0.66472827  0.95816399  0.33900191    -0.19100
C2677       C  0.66318620  0.97274399  0.33995477    -0.07500
C2678       C  0.65663666  0.97884104  0.35175142    -0.03600
C2679       C  0.65195114  0.97006654  0.36269496    -0.08900
C2680       C  0.65355955  0.95551074  0.36174542    -0.16600
H2681       H  0.63396155  0.88271277  0.35791671     0.11600
H2682       H  0.63758645  0.90809104  0.35745467     0.10900
H2683       H  0.67820726  0.90220685  0.33826587     0.10800
H2684       H  0.67480281  0.87665339  0.33878320     0.11300
H2685       H  0.66953211  0.95362451  0.32971457     0.11400
H2686       H  0.66681836  0.97917735  0.33130234     0.11300
H2687       H  0.64702794  0.97441292  0.37199372     0.11500
H2688       H  0.64972805  0.94890702  0.37020482     0.10300
C2689       C  0.22656895  0.66309399  0.26110402    -0.03500
C2690       C  0.21293874  0.66863270  0.26241244    -0.09300
C2691       C  0.20255602  0.66111469  0.26965764    -0.16900
C2692       C  0.20570579  0.64797824  0.27552537     0.25200
C2693       C  0.21920463  0.64233203  0.27401471    -0.18600
C2694       C  0.22958076  0.64984988  0.26686183    -0.07500
C2695       C  0.19525217  0.64032693  0.28333839    -0.13900
C2696       C  0.18697530  0.63359234  0.29018030    -0.13700
C2697       C  0.17746402  0.62536011  0.29858371     0.25100
C2698       C  0.18274049  0.61563947  0.30826726    -0.19100
C2699       C  0.17353344  0.60772622  0.31655844    -0.07500
C2700       C  0.15887265  0.60943668  0.31529071    -0.03600
C2701       C  0.15370172  0.61919125  0.30542109    -0.08900
C2702       C  0.16293695  0.62708756  0.29714971    -0.16600
H2703       H  0.21042120  0.67879791  0.25796372     0.11600
H2704       H  0.19213143  0.66557131  0.27076640     0.10900
H2705       H  0.22175353  0.63218514  0.27850584     0.10800
H2706       H  0.24004605  0.64544030  0.26596832     0.11300
H2707       H  0.19398556  0.61420734  0.30944857     0.11400
H2708       H  0.17797427  0.60035353  0.32397353     0.11300
H2709       H  0.14253712  0.62082839  0.30405578     0.11500
H2710       H  0.15873992  0.63457481  0.28966476     0.10300
C2711       C  0.84159429  0.61034738  0.31792480    -0.03500
C2712       C  0.84612363  0.61623113  0.30511506    -0.09300
C2713       C  0.83712905  0.62479334  0.29722913    -0.16900
C2714       C  0.82353101  0.62768667  0.30207445     0.25200
C2715       C  0.81898690  0.62200043  0.31488141    -0.18600
C2716       C  0.82793051  0.61335671  0.32273776    -0.07500
C2717       C  0.81408820  0.63613484  0.29374567    -0.13900
C2718       C  0.80574433  0.64272163  0.28680747    -0.13700
C2719       C  0.79510456  0.64989610  0.27873366     0.25100
C2720       C  0.78170912  0.64392477  0.27746363    -0.19100
C2721       C  0.77119252  0.65088214  0.26994483    -0.07500
C2722       C  0.77393627  0.66390311  0.26357913    -0.03600
C2723       C  0.78746168  0.66976858  0.26464530    -0.08900
C2724       C  0.79798793  0.66281208  0.27224786    -0.16600
H2725       H  0.85652680  0.61403369  0.30104922     0.11600
H2726       H  0.84074790  0.62906710  0.28730242     0.10900
H2727       H  0.80848768  0.62416672  0.31875083     0.10800
H2728       H  0.82417432  0.60912883  0.33261847     0.11300
H2729       H  0.77935132  0.63394040  0.28240529     0.11400
H2730       H  0.76082028  0.64622194  0.26924999     0.11300
H2731       H  0.78978577  0.67976862  0.25973599     0.11500
H2732       H  0.80831999  0.66752735  0.27313270     0.10300
C2733       C  0.94915073  0.58214494  0.35044907    -0.03500
C2734       C  0.95832862  0.57426245  0.35898254    -0.09300
C2735       C  0.97283593  0.57647921  0.35841059    -0.16900
C2736       C  0.97843389  0.58658996  0.34932987     0.25200
C2737       C  0.96945092  0.59459158  0.34088571    -0.18600
C2738       C  0.95490730  0.59240129  0.34143717    -0.07500
C2739       C  0.99343018  0.58838402  0.34851584    -0.13900
C2740       C  0.00609730  0.58874323  0.34838060    -0.13700
C2741       C  0.02116872  0.58771341  0.34905667     0.25100
C2742       C  0.02965522  0.59383559  0.33869832    -0.19100
C2743       C  0.04428208  0.59217508  0.33920306    -0.07500
C2744       C  0.05056305  0.58431021  0.35006015    -0.03600
C2745       C  0.04189803  0.57837241  0.36049205    -0.08900
C2746       C  0.02733525  0.58005975  0.35997242    -0.16600
H2747       H  0.95440696  0.56628617  0.36605930     0.11600
H2748       H  0.97970905  0.57020771  0.36498447     0.10900
H2749       H  0.97368555  0.60244603  0.33380511     0.10800
H2750       H  0.94825203  0.59872367  0.33474150     0.11300
H2751       H  0.02496890  0.59974293  0.33016178     0.11400
H2752       H  0.05059769  0.59683874  0.33096697     0.11300
H2753       H  0.04630174  0.57241152  0.36911008     0.11500
H2754       H  0.02086023  0.57527475  0.36804297     0.10300
C2755       C  0.68242431  0.60955655  0.15983245    -0.03500
C2756       C  0.67994507  0.60959279  0.17443960    -0.09300
C2757       C  0.68741627  0.61866325  0.18328398    -0.16900
C2758       C  0.69746430  0.62784642  0.17769815     0.25200
C2759       C  0.69986688  0.62807552  0.16318895    -0.18600
C2760       C  0.69241268  0.61901994  0.15431563    -0.07500
C2761       C  0.70563354  0.63663779  0.18693823    -0.13900
C2762       C  0.71252047  0.64340628  0.19516528    -0.13700
C2763       C  0.72045976  0.65075954  0.20576043     0.25100
C2764       C  0.73367378  0.65653119  0.20264026    -0.19100
C2765       C  0.74145587  0.66328765  0.21317338    -0.07500
C2766       C  0.73606407  0.66425703  0.22689429    -0.03600
C2767       C  0.72281021  0.65849603  0.22991349    -0.08900
C2768       C  0.71505846  0.65179193  0.21941357    -0.16600
H2769       H  0.67231207  0.60258733  0.17911854     0.11600
H2770       H  0.68546163  0.61839880  0.19451293     0.10900
H2771       H  0.70763161  0.63513119  0.15874361     0.10800
H2772       H  0.69466571  0.61937083  0.14317552     0.11300
H2773       H  0.73796362  0.65576575  0.19210842     0.11400
H2774       H  0.75161667  0.66777628  0.21065716     0.11300
H2775       H  0.71849943  0.65918965  0.24044335     0.11500
H2776       H  0.70488127  0.64734169  0.22196302     0.10300
C2777       C  0.68501563  0.60725730  0.84288141    -0.03500
C2778       C  0.68396724  0.60565533  0.82818819    -0.09300
C2779       C  0.69225503  0.61377280  0.81914851    -0.16900
C2780       C  0.70173243  0.62360555  0.82461146     0.25200
C2781       C  0.70294542  0.62524156  0.83918107    -0.18600
C2782       C  0.69466845  0.61713637  0.84825472    -0.07500
C2783       C  0.71000218  0.63214013  0.81521356    -0.13900
C2784       C  0.71642489  0.63917941  0.80683582    -0.13700
C2785       C  0.72333697  0.64731794  0.79609219     0.25100
C2786       C  0.73654959  0.65338735  0.79854071    -0.19100
C2787       C  0.74322495  0.66108521  0.78790147    -0.07500
C2788       C  0.73675580  0.66267325  0.77471344    -0.03600
C2789       C  0.72347625  0.65665876  0.77239059    -0.08900
C2790       C  0.71680463  0.64904604  0.78301894    -0.16600
H2791       H  0.67675792  0.59816579  0.82359514     0.11600
H2792       H  0.69122064  0.61241658  0.80787644     0.10900
H2793       H  0.71023129  0.63284022  0.84353528     0.10800
H2794       H  0.69580883  0.61874791  0.85945268     0.11300
H2795       H  0.74169287  0.65213209  0.80862793     0.11400
H2796       H  0.75342453  0.66573880  0.78989814     0.11300
H2797       H  0.71834872  0.65777342  0.76227735     0.11500
H2798       H  0.70658925  0.64441594  0.78100613     0.10300
C2799       C  0.65197865  0.57910917  0.95090728    -0.03500
C2800       C  0.66380273  0.58557941  0.95704010    -0.09300
C2801       C  0.66497901  0.58666694  0.97167743    -0.16900
C2802       C  0.65434624  0.58134856  0.98035481     0.25200
C2803       C  0.64250390  0.57502486  0.97436181    -0.18600
C2804       C  0.64130908  0.57390994  0.95976555    -0.07500
C2805       C  0.65560335  0.58200553  0.99541967    -0.13900
C2806       C  0.65586172  0.58165941  0.00809063    -0.13700
C2807       C  0.65518894  0.58012754  0.02312928     0.25100
C2808       C  0.64514712  0.57115110  0.02901001    -0.19100
C2809       C  0.64445695  0.56933837  0.04356382    -0.07500
C2810       C  0.65383486  0.57648592  0.05251798    -0.03600
C2811       C  0.66387305  0.58557171  0.04648672    -0.08900
C2812       C  0.66453810  0.58736617  0.03188294    -0.16600
H2813       H  0.67225638  0.58962394  0.95058684     0.11600
H2814       H  0.67422004  0.59154365  0.97621769     0.10900
H2815       H  0.63420515  0.57087413  0.98098755     0.10800
H2816       H  0.63198778  0.56900325  0.95548589     0.11300
H2817       H  0.63784756  0.56550357  0.02232455     0.11400
H2818       H  0.63652184  0.56233835  0.04771264     0.11300
H2819       H  0.67129599  0.59123300  0.05297591     0.11500
H2820       H  0.67237254  0.59433887  0.02742888     0.10300
C2821       C  0.15641048  0.61330850  0.68184500    -0.03500
C2822       C  0.17058351  0.61517535  0.67802605    -0.09300
C2823       C  0.17971449  0.62270327  0.68672834    -0.16900
C2824       C  0.17484167  0.62843497  0.69937635     0.25200
C2825       C  0.16080596  0.62653462  0.70335805    -0.18600
C2826       C  0.15163088  0.61903425  0.69464637    -0.07500
C2827       C  0.18427549  0.63641440  0.70809042    -0.13900
C2828       C  0.19278435  0.64306099  0.71471835    -0.13700
C2829       C  0.20374759  0.65071997  0.72176545     0.25100
C2830       C  0.20151387  0.65644420  0.73516359    -0.19100
C2831       C  0.21241755  0.66354172  0.74204051    -0.07500
C2832       C  0.22566278  0.66480683  0.73560839    -0.03600
C2833       C  0.22774235  0.65923372  0.72209583    -0.08900
C2834       C  0.21683438  0.65225456  0.71520494    -0.16600
H2835       H  0.17460900  0.61101921  0.66822487     0.11600
H2836       H  0.19056471  0.62413613  0.68354080     0.10900
H2837       H  0.15693976  0.63089399  0.71315611     0.10800
H2838       H  0.14084539  0.61766858  0.69800522     0.11300
H2839       H  0.19141197  0.65532697  0.74031818     0.11400
H2840       H  0.21062301  0.66785331  0.75243143     0.11300
H2841       H  0.23790265  0.66009280  0.71700521     0.11500
H2842       H  0.21866199  0.64788767  0.70483433     0.10300
C2843       C  0.77273093  0.66395687  0.73639669    -0.03500
C2844       C  0.76985169  0.65115628  0.72967075    -0.09300
C2845       C  0.78011898  0.64463921  0.72148055    -0.16900
C2846       C  0.79335867  0.65085786  0.71992493     0.25200
C2847       C  0.79637920  0.66355514  0.72675724    -0.18600
C2848       C  0.78609688  0.67007963  0.73502040    -0.07500
C2849       C  0.80370393  0.64414123  0.71120552    -0.13900
C2850       C  0.81179453  0.63786154  0.70375752    -0.13700
C2851       C  0.82100039  0.62977800  0.69491482     0.25100
C2852       C  0.81567258  0.61845606  0.68717729    -0.19100
C2853       C  0.82464996  0.61035248  0.67881832    -0.07500
C2854       C  0.83910043  0.61345771  0.67814137    -0.03600
C2855       C  0.84431589  0.62494543  0.68588951    -0.08900
C2856       C  0.83531446  0.63304403  0.69421073    -0.16600
H2857       H  0.75955718  0.64636046  0.73058669     0.11600
H2858       H  0.77768945  0.63481944  0.71624466     0.10900
H2859       H  0.80660986  0.66843614  0.72561663     0.10800
H2860       H  0.78845097  0.67995869  0.74016318     0.11300
H2861       H  0.80459464  0.61582581  0.68768910     0.11400
H2862       H  0.82028773  0.60154598  0.67309309     0.11300
H2863       H  0.85533119  0.62775799  0.68550676     0.11500
H2864       H  0.83953355  0.64180784  0.70014299     0.10300
C2865       C  0.94721426  0.57949825  0.65409715    -0.03500
C2866       C  0.95300973  0.58985896  0.66296889    -0.09300
C2867       C  0.96758503  0.59075587  0.66491131    -0.16900
C2868       C  0.97653828  0.58131075  0.65804191     0.25200
C2869       C  0.97088066  0.57093181  0.64931616    -0.18600
C2870       C  0.95636497  0.57000926  0.64735974    -0.07500
C2871       C  0.99156154  0.58226639  0.65960783    -0.13900
C2872       C  0.00423991  0.58222887  0.65983700    -0.13700
C2873       C  0.01931734  0.58130029  0.65885936     0.25100
C2874       C  0.02546309  0.56937466  0.65283742    -0.19100
C2875       C  0.04003413  0.56863185  0.65110161    -0.07500
C2876       C  0.04869734  0.57982791  0.65538071    -0.03600
C2877       C  0.04244587  0.59167292  0.66168873    -0.08900
C2878       C  0.02783658  0.59241270  0.66336945    -0.16600
H2879       H  0.94636067  0.59737109  0.66832045     0.11600
H2880       H  0.97186225  0.59885650  0.67168250     0.10900
H2881       H  0.97771643  0.56356032  0.64394789     0.10800
H2882       H  0.95240431  0.56182631  0.64054421     0.11300
H2883       H  0.01896640  0.56070358  0.64931798     0.11400
H2884       H  0.04447378  0.55928492  0.64638096     0.11300
H2885       H  0.04877198  0.60051449  0.66502688     0.11500
H2886       H  0.02318254  0.60172195  0.66799769     0.10300
C2887       C  0.73766202  0.15220280  0.73682569    -0.03500
C2888       C  0.73716473  0.13872349  0.74279623    -0.09300
C2889       C  0.73010688  0.12785802  0.73584263    -0.16900
C2890       C  0.72358060  0.13041870  0.72288419     0.25200
C2891       C  0.72420487  0.14380811  0.71685063    -0.18600
C2892       C  0.73121946  0.15464995  0.72378321    -0.07500
C2893       C  0.71596929  0.11948062  0.71580034    -0.13900
C2894       C  0.70912594  0.11102771  0.70933089    -0.13700
C2895       C  0.70051729  0.10173667  0.70111555     0.25100
C2896       C  0.69342645  0.10690501  0.68932096    -0.19100
C2897       C  0.68489945  0.09800857  0.68134114    -0.07500
C2898       C  0.68335363  0.08377999  0.68505490    -0.03600
C2899       C  0.69055257  0.07869107  0.69695659    -0.08900
C2900       C  0.69907479  0.08762607  0.70492841    -0.16600
H2901       H  0.74214661  0.13668738  0.75283235     0.11600
H2902       H  0.72966142  0.11752173  0.74058952     0.10900
H2903       H  0.71916725  0.14589130  0.70684368     0.10800
H2904       H  0.73150571  0.16501190  0.71907698     0.11300
H2905       H  0.69448604  0.11782993  0.68628831     0.11400
H2906       H  0.67964270  0.10230310  0.67222133     0.11300
H2907       H  0.68955209  0.06785566  0.70022519     0.11500
H2908       H  0.70449402  0.08354190  0.71407985     0.10300
C2909       C  0.67527037  0.76682822  0.68942334    -0.03500
C2910       C  0.68575083  0.77201687  0.69851616    -0.09300
C2911       C  0.69407853  0.76282287  0.70635889    -0.16900
C2912       C  0.69206200  0.74832422  0.70527602     0.25200
C2913       C  0.68154966  0.74302192  0.69645447    -0.18600
C2914       C  0.67319082  0.75219858  0.68858846    -0.07500
C2915       C  0.70107998  0.73889751  0.71288100    -0.13900
C2916       C  0.70885067  0.73086610  0.71882104    -0.13700
C2917       C  0.71803811  0.72077233  0.72527283     0.25100
C2918       C  0.72017839  0.70778556  0.71873201    -0.19100
C2919       C  0.72862727  0.69766836  0.72512640    -0.07500
C2920       C  0.73506565  0.70044273  0.73811784    -0.03600
C2921       C  0.73324025  0.71364144  0.74447474    -0.08900
C2922       C  0.72467658  0.72375545  0.73809289    -0.16600
H2923       H  0.68773747  0.78315578  0.69947416     0.11600
H2924       H  0.70221213  0.76702722  0.71314464     0.10900
H2925       H  0.67990637  0.73179123  0.69554649     0.10800
H2926       H  0.66519663  0.74777318  0.68182151     0.11300
H2927       H  0.71512474  0.70539411  0.70880086     0.11400
H2928       H  0.72988555  0.68751810  0.72012018     0.11300
H2929       H  0.73816473  0.71594809  0.75448267     0.11500
H2930       H  0.72310153  0.73380322  0.74321397     0.10300
C2931       C  0.64770091  0.87526507  0.65809894    -0.03500
C2932       C  0.63691709  0.88395660  0.65292335    -0.09300
C2933       C  0.63765519  0.89851359  0.65455283    -0.16900
C2934       C  0.64918269  0.90463026  0.66132780     0.25200
C2935       C  0.65997438  0.89609620  0.66656043    -0.18600
C2936       C  0.65922126  0.88147976  0.66500359    -0.07500
C2937       C  0.64989184  0.91968191  0.66261645    -0.13900
C2938       C  0.64968660  0.93234696  0.66285770    -0.13700
C2939       C  0.64864896  0.94741529  0.66209970     0.25100
C2940       C  0.65946814  0.95594264  0.66726704    -0.19100
C2941       C  0.65863797  0.97055978  0.66587785    -0.07500
C2942       C  0.64698630  0.97682315  0.65922708    -0.03600
C2943       C  0.63607017  0.96814178  0.65429021    -0.08900
C2944       C  0.63690866  0.95355915  0.65572341    -0.16600
H2945       H  0.62781666  0.87953549  0.64771836     0.11600
H2946       H  0.62923442  0.90501410  0.65047840     0.10900
H2947       H  0.66898064  0.90073202  0.67177574     0.10800
H2948       H  0.66773768  0.87508914  0.66901127     0.11300
H2949       H  0.66862358  0.95129280  0.67219819     0.11400
H2950       H  0.66726417  0.97688640  0.66974271     0.11300
H2951       H  0.62686338  0.97256823  0.64929243     0.11500
H2952       H  0.62845406  0.94705784  0.65171193     0.10300
C2953       C  0.96918036  0.89738401  0.34190570    -0.03500
C2954       C  0.96465890  0.89131716  0.35461752    -0.09300
C2955       C  0.95389343  0.88135837  0.35469727    -0.16900
C2956       C  0.94744639  0.87732679  0.34210974     0.25200
C2957       C  0.95185028  0.88326444  0.32937435    -0.18600
C2958       C  0.96268986  0.89323257  0.32925879    -0.07500
C2959       C  0.93628132  0.86714623  0.34251990    -0.13900
C2960       C  0.92710453  0.85865272  0.34454421    -0.13700
C2961       C  0.91657652  0.84871721  0.34889609     0.25100
C2962       C  0.91172303  0.83833303  0.33968075    -0.19100
C2963       C  0.90198095  0.82833132  0.34434143    -0.07500
C2964       C  0.89700751  0.82858471  0.35831011    -0.03600
C2965       C  0.90183865  0.83922853  0.36738515    -0.08900
C2966       C  0.91154678  0.84918258  0.36270706    -0.16600
H2967       H  0.96946260  0.89422967  0.36452573     0.11600
H2968       H  0.95056950  0.87681277  0.36460930     0.10900
H2969       H  0.94691064  0.88021498  0.31956957     0.10800
H2970       H  0.96593309  0.89772829  0.31930913     0.11300
H2971       H  0.91558979  0.83785770  0.32896721     0.11400
H2972       H  0.89856118  0.82031427  0.33704167     0.11300
H2973       H  0.89820883  0.83991252  0.37814176     0.11500
H2974       H  0.91524999  0.85717964  0.36993224     0.10300
C2975       C  0.02999185  0.89421616  0.34342052    -0.03500
C2976       C  0.03282681  0.88730547  0.35619009    -0.09300
C2977       C  0.04255268  0.87632668  0.35670793    -0.16900
C2978       C  0.04962166  0.87210807  0.34450629     0.25200
C2979       C  0.04686874  0.87887683  0.33173001    -0.18600
C2980       C  0.03707649  0.88984947  0.33117018    -0.07500
C2981       C  0.05972580  0.86088175  0.34528621    -0.13900
C2982       C  0.06800007  0.85149186  0.34725365    -0.13700
C2983       C  0.07752787  0.84049244  0.35135652     0.25100
C2984       C  0.08642273  0.83406424  0.34153371    -0.19100
C2985       C  0.09590186  0.82365880  0.34586947    -0.07500
C2986       C  0.09660430  0.81960837  0.36010502    -0.03600
C2987       C  0.08739873  0.82599679  0.36979064    -0.08900
C2988       C  0.07798758  0.83635543  0.36544656    -0.16600
H2989       H  0.02750629  0.89035397  0.36579356     0.11600
H2990       H  0.04458966  0.87114550  0.36665076     0.10900
H2991       H  0.05229694  0.87569814  0.32222455     0.10800
H2992       H  0.03513270  0.89497300  0.32119013     0.11300
H2993       H  0.08613369  0.83718379  0.33057808     0.11400
H2994       H  0.10280626  0.81900684  0.33811381     0.11300
H2995       H  0.08742083  0.82308544  0.38077974     0.11500
H2996       H  0.07110979  0.84121913  0.37313024     0.10300
C2997       C  0.97230865  0.95893036  0.34212112    -0.03500
C2998       C  0.96944507  0.96624058  0.35466036    -0.09300
C2999       C  0.95957386  0.97709358  0.35487525    -0.16900
C3000       C  0.95235864  0.98079024  0.34260210     0.25200
C3001       C  0.95518088  0.97365583  0.33002154    -0.18600
C3002       C  0.96515012  0.96281356  0.32975961    -0.07500
C3003       C  0.94182337  0.99164844  0.34323293    -0.13900
C3004       C  0.93298758  0.00049691  0.34535968    -0.13700
C3005       C  0.92254638  0.01053514  0.34979692     0.25100
C3006       C  0.91602924  0.01952358  0.34013682    -0.19100
C3007       C  0.90583215  0.02913927  0.34471164    -0.07500
C3008       C  0.90203418  0.02988372  0.35902683    -0.03600
C3009       C  0.90872509  0.02078646  0.36860252    -0.08900
C3010       C  0.91887021  0.01122721  0.36401601    -0.16600
H3011       H  0.97483260  0.96357401  0.36433254     0.11600
H3012       H  0.95747384  0.98253230  0.36467199     0.10900
H3013       H  0.94961989  0.97639556  0.32046475     0.10800
H3014       H  0.96711168  0.95735542  0.31995528     0.11300
H3015       H  0.91880962  0.01909668  0.32909118     0.11400
H3016       H  0.90099741  0.03598226  0.33702925     0.11300
H3017       H  0.90611523  0.02089652  0.37966700     0.11500
H3018       H  0.92383307  0.00431731  0.37159390     0.10300
C3019       C  0.03294078  0.95608964  0.34362850    -0.03500
C3020       C  0.03931070  0.96107248  0.33122067    -0.09300
C3021       C  0.04986331  0.97132454  0.33185437    -0.16900
C3022       C  0.05413776  0.97671243  0.34487606     0.25200
C3023       C  0.04780867  0.97185821  0.35724033    -0.18600
C3024       C  0.03730665  0.96162295  0.35664112    -0.07500
C3025       C  0.06505734  0.98715231  0.34575915    -0.13900
C3026       C  0.07404471  0.99583153  0.34790717    -0.13700
C3027       C  0.08431060  0.00608164  0.35221447     0.25100
C3028       C  0.08739351  0.00755743  0.36651108    -0.19100
C3029       C  0.09681097  0.01786014  0.37102430    -0.07500
C3030       C  0.10330422  0.02693604  0.36129412    -0.03600
C3031       C  0.10037823  0.02516640  0.34687123    -0.08900
C3032       C  0.09091518  0.01481004  0.34237158    -0.16600
H3033       H  0.03616069  0.95704520  0.32104327     0.11600
H3034       H  0.05468851  0.97502224  0.32221482     0.10900
H3035       H  0.05101809  0.97597405  0.36737459     0.10800
H3036       H  0.03258785  0.95807658  0.36638443     0.11300
H3037       H  0.08238239  0.00082318  0.37422141     0.11400
H3038       H  0.09889046  0.01869383  0.38217064     0.11300
H3039       H  0.10515389  0.03191869  0.33906460     0.11500
H3040       H  0.08861294  0.01374453  0.33126130     0.10300
C3041       C  0.96900285  0.89356347  0.65311137    -0.03500
C3042       C  0.96525608  0.88766782  0.64006113    -0.09300
C3043       C  0.95545834  0.87675571  0.63934514    -0.16900
C3044       C  0.94923979  0.87156639  0.65163111     0.25200
C3045       C  0.95286633  0.87735095  0.66467876    -0.18600
C3046       C  0.96270073  0.88828281  0.66542894    -0.07500
C3047       C  0.93899758  0.86046241  0.65066772    -0.13900
C3048       C  0.93033274  0.85141973  0.64868698    -0.13700
C3049       C  0.91995912  0.84110132  0.64480756     0.25100
C3050       C  0.91619687  0.83028043  0.65405792    -0.19100
C3051       C  0.90629010  0.82017487  0.64995452    -0.07500
C3052       C  0.90013545  0.82074060  0.63650351    -0.03600
C3053       C  0.90390929  0.83174571  0.62737477    -0.08900
C3054       C  0.91372454  0.84183764  0.63151110    -0.16600
H3055       H  0.96991352  0.89145871  0.63038102     0.11600
H3056       H  0.95270841  0.87237874  0.62918565     0.10900
H3057       H  0.94808575  0.87343544  0.67425438     0.10800
H3058       H  0.96536036  0.89259098  0.67563114     0.11300
H3059       H  0.92097877  0.82959839  0.66437784     0.11400
H3060       H  0.90366442  0.81179877  0.65719294     0.11300
H3061       H  0.89924083  0.83263871  0.61703583     0.11500
H3062       H  0.91651410  0.85019308  0.62428571     0.10300
C3063       C  0.96796951  0.95555496  0.65253177    -0.03500
C3064       C  0.96193156  0.96110525  0.66485542    -0.09300
C3065       C  0.95205129  0.97194831  0.66406416    -0.16900
C3066       C  0.94810336  0.97735590  0.65097144     0.25200
C3067       C  0.95393459  0.97180881  0.63865057    -0.18600
C3068       C  0.96379869  0.96097012  0.63940838    -0.07500
C3069       C  0.93817274  0.98868313  0.65009983    -0.13900
C3070       C  0.92994257  0.99816280  0.64855618    -0.13700
C3071       C  0.92020226  0.00924730  0.64542055     0.25100
C3072       C  0.92164412  0.01671812  0.63284816    -0.19100
C3073       C  0.91167826  0.02679095  0.62912045    -0.07500
C3074       C  0.90014771  0.02955958  0.63796019    -0.03600
C3075       C  0.89900140  0.02234500  0.65081163    -0.08900
C3076       C  0.90896209  0.01216520  0.65448607    -0.16600
H3077       H  0.96491898  0.95715596  0.67510837     0.11600
H3078       H  0.94756892  0.97617213  0.67365564     0.10900
H3079       H  0.95092516  0.97592613  0.62845974     0.10800
H3080       H  0.96824967  0.95693581  0.62972730     0.11300
H3081       H  0.93033489  0.01456518  0.62578724     0.11400
H3082       H  0.91296216  0.03233728  0.61926383     0.11300
H3083       H  0.89019035  0.02422915  0.65777990     0.11500
H3084       H  0.90775262  0.00639652  0.66423537     0.10300
C3085       C  0.02985132  0.89517037  0.65643955    -0.03500
C3086       C  0.03701279  0.89147148  0.64403673    -0.09300
C3087       C  0.04763539  0.88138284  0.64430678    -0.16900
C3088       C  0.05125464  0.87479177  0.65693707     0.25200
C3089       C  0.04417113  0.87831730  0.66936420    -0.18600
C3090       C  0.03352346  0.88848730  0.66913133    -0.07500
C3091       C  0.06229639  0.86447832  0.65685295    -0.13900
C3092       C  0.07166203  0.85620293  0.65480176    -0.13700
C3093       C  0.08263438  0.84692449  0.65010640     0.25100
C3094       C  0.09090080  0.83945412  0.65970142    -0.19100
C3095       C  0.10157492  0.83054520  0.65484357    -0.07500
C3096       C  0.10410655  0.82901071  0.64030797    -0.03600
C3097       C  0.09569938  0.83663257  0.63080692    -0.08900
C3098       C  0.08507698  0.84549386  0.63567974    -0.16600
H3099       H  0.03446905  0.89642537  0.63410481     0.11600
H3100       H  0.05305689  0.87872737  0.63463191     0.10900
H3101       H  0.04688350  0.87324647  0.67919642     0.10800
H3102       H  0.02815503  0.89108152  0.67884041     0.11300
H3103       H  0.08911191  0.84051638  0.67090881     0.11400
H3104       H  0.10780143  0.82491288  0.66250355     0.11300
H3105       H  0.09722275  0.83580091  0.61957179     0.11500
H3106       H  0.07874599  0.85125509  0.62815888     0.10300
C3107       C  0.09740517  0.02941614  0.64036729    -0.03500
C3108       C  0.09443005  0.02743414  0.65475983    -0.09300
C3109       C  0.08510306  0.01687865  0.65910812    -0.16900
C3110       C  0.07865812  0.00816248  0.64914596     0.25200
C3111       C  0.08168436  0.00993962  0.63486818    -0.18600
C3112       C  0.09096319  0.02043845  0.63050542    -0.07500
C3113       C  0.06866593  0.99756014  0.65330367    -0.13900
C3114       C  0.05991102  0.98857490  0.65519936    -0.13700
C3115       C  0.04922811  0.97783933  0.65556126     0.25100
C3116       C  0.04275170  0.97375483  0.64299964    -0.19100
C3117       C  0.03254479  0.96320898  0.64302370    -0.07500
C3118       C  0.02859835  0.95658438  0.65565188    -0.03600
C3119       C  0.03504976  0.96083696  0.66828597    -0.08900
C3120       C  0.04534206  0.97138808  0.66822465    -0.16600
H3121       H  0.09914553  0.03409869  0.66267518     0.11600
H3122       H  0.08283290  0.01560476  0.67020452     0.10900
H3123       H  0.07677557  0.00324760  0.62705632     0.10800
H3124       H  0.09300493  0.02145671  0.61936910     0.11300
H3125       H  0.04564671  0.97868996  0.63314129     0.11400
H3126       H  0.02773995  0.96025302  0.63312843     0.11300
H3127       H  0.03224614  0.95592770  0.67817239     0.11500
H3128       H  0.05028878  0.97446605  0.67801659     0.10300
C3129       C  0.34379244  0.89668607  0.96608123    -0.03500
C3130       C  0.35656972  0.89110676  0.96112160    -0.09300
C3131       C  0.35664276  0.88081641  0.95065162    -0.16900
C3132       C  0.34397853  0.87595255  0.94495984     0.25200
C3133       C  0.33119863  0.88147613  0.94974687    -0.18600
C3134       C  0.33109348  0.89177914  0.96026515    -0.07500
C3135       C  0.34429356  0.86529928  0.93421763    -0.13900
C3136       C  0.34601290  0.85650400  0.92525012    -0.13700
C3137       C  0.34998805  0.84648582  0.91462692     0.25100
C3138       C  0.34085698  0.83569660  0.91050186    -0.19100
C3139       C  0.34512734  0.82589032  0.90034975    -0.07500
C3140       C  0.35860769  0.82676622  0.89425041    -0.03600
C3141       C  0.36760943  0.83773643  0.89846239    -0.08900
C3142       C  0.36333269  0.84747136  0.90855731    -0.16600
H3143       H  0.36652948  0.89464754  0.96536044     0.11600
H3144       H  0.36659782  0.87663002  0.94700415     0.10900
H3145       H  0.32133546  0.87781029  0.94537944     0.10800
H3146       H  0.32109196  0.89590199  0.96382575     0.11300
H3147       H  0.33050067  0.83481268  0.91517802     0.11400
H3148       H  0.33793973  0.81757425  0.89743419     0.11300
H3149       H  0.37798255  0.83892491  0.89396287     0.11500
H3150       H  0.37048836  0.85577612  0.91166808     0.10300
C3151       C  0.36269672  0.82579336  0.09892253    -0.03500
C3152       C  0.34854705  0.82999317  0.09765384    -0.09300
C3153       C  0.34444072  0.83934705  0.08704211    -0.16900
C3154       C  0.35439889  0.84459416  0.07754557     0.25200
C3155       C  0.36843065  0.84034612  0.07860919    -0.18600
C3156       C  0.37255635  0.83103211  0.08917751    -0.07500
C3157       C  0.35048218  0.85467752  0.06694778    -0.13900
C3158       C  0.34842385  0.86351234  0.05808494    -0.13700
C3159       C  0.34741040  0.87439447  0.04760356     0.25100
C3160       C  0.35971573  0.88040290  0.04221743    -0.19100
C3161       C  0.35895724  0.89106630  0.03215492    -0.07500
C3162       C  0.34584355  0.89590400  0.02730994    -0.03600
C3163       C  0.33350070  0.88981849  0.03278981    -0.08900
C3164       C  0.33429196  0.87912033  0.04287652    -0.16600
H3165       H  0.34065995  0.82624389  0.10494651     0.11600
H3166       H  0.33354274  0.84259337  0.08634179     0.10900
H3167       H  0.37623717  0.84433374  0.07131884     0.10800
H3168       H  0.38349911  0.82799260  0.08964384     0.11300
H3169       H  0.36992603  0.87685001  0.04581682     0.11400
H3170       H  0.36865832  0.89551306  0.02817343     0.11300
H3171       H  0.32324648  0.89329698  0.02927143     0.11500
H3172       H  0.32469311  0.87455961  0.04698931     0.10300
C3173       C  0.34268671  0.95755018  0.96636716    -0.03500
C3174       C  0.32979439  0.96305725  0.96159374    -0.09300
C3175       C  0.32952604  0.97336978  0.95108742    -0.16900
C3176       C  0.34212462  0.97825310  0.94523571     0.25200
C3177       C  0.35495865  0.97276027  0.94985811    -0.18600
C3178       C  0.35525748  0.96249690  0.96033566    -0.07500
C3179       C  0.34215380  0.98903549  0.93463403    -0.13900
C3180       C  0.34401001  0.99806650  0.92594380    -0.13700
C3181       C  0.34844477  0.00854866  0.91598716     0.25100
C3182       C  0.36221448  0.01365236  0.91667596    -0.19100
C3183       C  0.36704410  0.02327625  0.90671840    -0.07500
C3184       C  0.35814681  0.02796977  0.89587865    -0.03600
C3185       C  0.34419954  0.02301153  0.89541604     0.04300
C3186       C  0.33939126  0.01330783  0.90540089    -0.16600
H3187       H  0.31993427  0.95944226  0.96600401     0.11600
H3188       H  0.31953002  0.97755715  0.94758294     0.10900
H3189       H  0.36477204  0.97646742  0.94539372     0.10800
H3190       H  0.36535049  0.95845774  0.96371796     0.11300
H3191       H  0.36930319  0.01005688  0.92484656     0.11400
H3192       H  0.37775614  0.02700383  0.90754658     0.11300
H3193       H  0.33709853  0.02635815  0.88718024     0.11500
H3194       H  0.32871373  0.00939166  0.90475146     0.10300
C3195       C  0.34507998  0.95718422  0.02820262    -0.03500
C3196       C  0.35807495  0.96126608  0.03398646    -0.09300
C3197       C  0.35866901  0.97141466  0.04457690    -0.16900
C3198       C  0.34631534  0.97767323  0.04953331     0.25200
C3199       C  0.33331258  0.97368854  0.04388616    -0.18600
C3200       C  0.33268271  0.96347792  0.03329066    -0.07500
C3201       C  0.34715814  0.98820921  0.06036400    -0.13900
C3202       C  0.34900847  0.99692951  0.06937858    -0.13700
C3203       C  0.35260729  0.00710477  0.07998568     0.25100
C3204       C  0.34306816  0.01761408  0.08390670    -0.19100
C3205       C  0.34691202  0.02770974  0.09392076    -0.07500
C3206       C  0.36039652  0.02745943  0.09999495    -0.03600
C3207       C  0.36981801  0.01675149  0.09609506    -0.08900
C3208       C  0.36593267  0.00664732  0.08618677    -0.16600
H3209       H  0.36780860  0.95659576  0.03035835     0.11600
H3210       H  0.36878750  0.97440416  0.04888649     0.10900
H3211       H  0.32368276  0.97847626  0.04765061     0.10800
H3212       H  0.32252405  0.96056592  0.02904790     0.11300
H3213       H  0.33273392  0.01808498  0.07913487     0.11400
H3214       H  0.33947200  0.03587620  0.09665204     0.11300
H3215       H  0.38020155  0.01614015  0.10071381     0.11500
H3216       H  0.37338521  0.99854024  0.08326288     0.10300
C3217       C  0.96987517  0.26825724  0.96884534    -0.03500
C3218       C  0.96456964  0.25573076  0.96301633    -0.09300
C3219       C  0.95460684  0.25617795  0.95216812    -0.16900
C3220       C  0.94987008  0.26913113  0.94704164     0.25200
C3221       C  0.95510197  0.28160801  0.95277995    -0.18600
C3222       C  0.96501171  0.28119373  0.96359132    -0.07500
C3223       C  0.93961014  0.26985168  0.93594603    -0.13900
C3224       C  0.93106453  0.27196339  0.92682682    -0.13700
C3225       C  0.92105953  0.27621625  0.91631008     0.25100
C3226       C  0.92142856  0.28998900  0.91121711    -0.19100
C3227       C  0.91144712  0.29452421  0.90146793    -0.07500
C3228       C  0.90089734  0.28533601  0.89664738    -0.03600
C3229       C  0.90072864  0.27141927  0.90166249    -0.08900
C3230       C  0.91074086  0.26690438  0.91147056    -0.16600
H3231       H  0.96810607  0.24561216  0.96682977     0.11600
H3232       H  0.95061031  0.24645226  0.94779611     0.10900
H3233       H  0.95150762  0.29168989  0.94889220     0.10800
H3234       H  0.96887672  0.29103327  0.96781137     0.11300
H3235       H  0.92937799  0.29728395  0.91488499     0.11400
H3236       H  0.91205076  0.30523982  0.89773170     0.11300
H3237       H  0.89272481  0.26409274  0.89824827     0.11500
H3238       H  0.91033415  0.25622409  0.91538907     0.10300
C3239       C  0.10571875  0.28910618  0.90409059    -0.03500
C3240       C  0.10123633  0.27500177  0.90449518    -0.09300
C3241       C  0.09083077  0.27071716  0.91401166    -0.16900
C3242       C  0.08479310  0.28044859  0.92325767     0.25200
C3243       C  0.08926286  0.29444115  0.92302425    -0.18600
C3244       C  0.09963265  0.29874451  0.91354860    -0.07500
C3245       C  0.07386016  0.27628659  0.93288727    -0.13900
C3246       C  0.06451404  0.27394333  0.94114720    -0.13700
C3247       C  0.05325692  0.27257861  0.95119693     0.25100
C3248       C  0.04812246  0.28458986  0.95794037    -0.19100
C3249       C  0.03719402  0.28350822  0.96769217    -0.07500
C3250       C  0.03123858  0.27035535  0.97090193    -0.03600
C3251       C  0.03644822  0.25830571  0.96407234    -0.08900
C3252       C  0.04738912  0.25942717  0.95425285    -0.16600
H3253       H  0.10559887  0.26728541  0.89737062     0.11600
H3254       H  0.08743355  0.25985108  0.91408693     0.10900
H3255       H  0.08467959  0.30206747  0.93014692     0.10800
H3256       H  0.10284201  0.30964047  0.91370888     0.11300
H3257       H  0.05257996  0.29482046  0.95566140     0.11400
H3258       H  0.03347077  0.29298835  0.97277727     0.11300
H3259       H  0.03206678  0.24804103  0.96629702     0.11500
H3260       H  0.05127149  0.25005874  0.94907049     0.10300
C3261       C  0.96790901  0.26666461  0.03017890    -0.03500
C3262       C  0.96415936  0.25418536  0.03719866    -0.09300
C3263       C  0.95343217  0.25425232  0.04733764    -0.16900
C3264       C  0.94631708  0.26676152  0.05047438     0.25200
C3265       C  0.94993948  0.27915003  0.04345685    -0.18600
C3266       C  0.96064467  0.27912546  0.03342267    -0.07500
C3267       C  0.93535410  0.26721785  0.06092316    -0.13900
C3268       C  0.92615968  0.26950954  0.06936557    -0.13700
C3269       C  0.91544033  0.27429628  0.07894235     0.25100
C3270       C  0.91123822  0.28836875  0.07852687    -0.19100
C3271       C  0.90116919  0.29337920  0.08797026    -0.07500
C3272       C  0.89512444  0.28438221  0.09804620    -0.03600
C3273       C  0.89927331  0.27017010  0.09826124    -0.08900
C3274       C  0.90938900  0.26517394  0.08877701    -0.16600
H3275       H  0.96958272  0.24443643  0.03494781     0.11600
H3276       H  0.95072409  0.24459719  0.05272953     0.10900
H3277       H  0.94450106  0.28888504  0.04578392     0.10800
H3278       H  0.96320393  0.28889640  0.02817731     0.11300
H3279       H  0.91582716  0.29552249  0.07093406     0.11400
H3280       H  0.89817072  0.30431736  0.08732310     0.11300
H3281       H  0.89491442  0.26293624  0.10587700     0.11500
H3282       H  0.91257245  0.25425385  0.08920315     0.10300
C3283       C  0.09917888  0.28692141  0.10352090    -0.03500
C3284       C  0.09067121  0.29658638  0.09621639    -0.09300
C3285       C  0.08110551  0.29200062  0.08606114    -0.16900
C3286       C  0.07981605  0.27769162  0.08299969     0.25200
C3287       C  0.08814334  0.26793770  0.09020885    -0.18600
C3288       C  0.09775922  0.27250821  0.10040745    -0.07500
C3289       C  0.06991005  0.27323753  0.07242515    -0.13900
C3290       C  0.06127986  0.27094145  0.06340471    -0.13700
C3291       C  0.05068955  0.27000175  0.05260312     0.25100
C3292       C  0.04616118  0.25696095  0.04747332    -0.19100
C3293       C  0.03575763  0.25631335  0.03704212    -0.07500
C3294       C  0.02976806  0.26872354  0.03165142    -0.03600
C3295       C  0.03444473  0.28174505  0.03688105    -0.08900
C3296       C  0.04480887  0.28235965  0.04725610    -0.16600
H3297       H  0.09130536  0.30773141  0.09829908     0.11600
H3298       H  0.07469743  0.29965344  0.08057329     0.10900
H3299       H  0.08723554  0.25682034  0.08793058     0.10800
H3300       H  0.10410548  0.26473662  0.10574306     0.11300
H3301       H  0.05064479  0.24731935  0.05153558     0.11400
H3302       H  0.03240778  0.24613131  0.03321630     0.11300
H3303       H  0.03010589  0.29150305  0.03295442     0.11500
H3304       H  0.04822858  0.29251002  0.05113345     0.10300
C3305       C  0.64027782  0.82558027  0.89897635    -0.03500
C3306       C  0.63167132  0.82984754  0.91022556    -0.09300
C3307       C  0.63653962  0.83958860  0.92005265    -0.16900
C3308       C  0.65005523  0.84524588  0.91880572     0.25200
C3309       C  0.65876438  0.84105209  0.90769365    -0.18600
C3310       C  0.65392148  0.83123171  0.89784382    -0.07500
C3311       C  0.65463946  0.85556409  0.92886720    -0.13900
C3312       C  0.65674035  0.86434023  0.93776476    -0.13700
C3313       C  0.65711387  0.87486854  0.94861950     0.25100
C3314       C  0.66989558  0.88020398  0.95361578    -0.19100
C3315       C  0.66996242  0.89058373  0.96407298    -0.07500
C3316       C  0.65722516  0.89573399  0.96961359    -0.03600
C3317       C  0.64447065  0.89017923  0.96458249    -0.08900
C3318       C  0.64443518  0.87983772  0.95417645    -0.16600
H3319       H  0.62119322  0.82561101  0.91153239     0.11600
H3320       H  0.62971312  0.84276461  0.92861705     0.10900
H3321       H  0.66922914  0.84542264  0.90659360     0.10800
H3322       H  0.66077232  0.82825648  0.88925080     0.11300
H3323       H  0.67977566  0.87640376  0.94939767     0.11400
H3324       H  0.67995285  0.89464104  0.96773301     0.11300
H3325       H  0.63448297  0.89387410  0.96862359     0.11500
H3326       H  0.63448407  0.87575477  0.95040589     0.10300
C3327       C  0.63813782  0.02563969  0.89570399    -0.03500
C3328       C  0.62892760  0.01555866  0.90139551    -0.09300
C3329       C  0.63364803  0.00602901  0.91150518    -0.16900
C3330       C  0.64760982  0.00643212  0.91611448     0.25200
C3331       C  0.65685350  0.01646719  0.91061349    -0.18600
C3332       C  0.65215938  0.02600682  0.90044494    -0.07500
C3333       C  0.65225256  0.99652346  0.92654379    -0.13900
C3334       C  0.65469272  0.98783844  0.93543409    -0.13700
C3335       C  0.65554165  0.97725457  0.94619112     0.25100
C3336       C  0.66853724  0.97265365  0.95137798    -0.19100
C3337       C  0.66903124  0.96245218  0.96199891    -0.07500
C3338       C  0.65651035  0.95678193  0.96751186    -0.03600
C3339       C  0.64354863  0.96143690  0.96211331    -0.08900
C3340       C  0.64308886  0.97158230  0.95155449    -0.16600
H3341       H  0.61811336  0.01486910  0.89793533     0.11600
H3342       H  0.62639923  0.99830372  0.91570736     0.10900
H3343       H  0.66766746  0.01691634  0.91417048     0.10800
H3344       H  0.65948630  0.03371632  0.89640712     0.11300
H3345       H  0.67824764  0.97697477  0.94726957     0.11400
H3346       H  0.67916673  0.95906344  0.96592476     0.11300
H3347       H  0.63371094  0.95729302  0.96608760     0.11500
H3348       H  0.63297993  0.97505398  0.94760159     0.10300
C3349       C  0.65537726  0.89782765  0.03098967    -0.03500
C3350       C  0.66773620  0.89203859  0.03670871    -0.09300
C3351       C  0.66695255  0.88175487  0.04721765    -0.16900
C3352       C  0.65382984  0.87719062  0.05211171     0.25200
C3353       C  0.64151903  0.88296900  0.04654776    -0.18600
C3354       C  0.64226755  0.89320267  0.03607699    -0.07500
C3355       C  0.65278621  0.86648219  0.06272198    -0.13900
C3356       C  0.65063605  0.85752160  0.07140901    -0.13700
C3357       C  0.64671754  0.84693975  0.08146190     0.25100
C3358       C  0.63365741  0.84029431  0.08024105    -0.19100
C3359       C  0.62953642  0.83026449  0.09012527    -0.07500
C3360       C  0.63845465  0.82670692  0.10138244    -0.03600
C3361       C  0.65162748  0.83335347  0.10246812    -0.08900
C3362       C  0.65571140  0.84344975  0.09257428    -0.16600
H3363       H  0.67797773  0.89538136  0.03301073     0.11600
H3364       H  0.67654973  0.87733163  0.05146665     0.10900
H3365       H  0.63131124  0.87950938  0.05026350     0.10800
H3366       H  0.63254922  0.89744213  0.03192951     0.11300
H3367       H  0.62661879  0.84291309  0.07166899     0.11400
H3368       H  0.61940358  0.82524844  0.08885721     0.11300
H3369       H  0.65868028  0.83093618  0.11106487     0.11500
H3370       H  0.66582442  0.84858701  0.09364039     0.10300
C3371       C  0.65517611  0.95905769  0.02893853    -0.03500
C3372       C  0.66749146  0.96413127  0.03541245    -0.09300
C3373       C  0.66669971  0.97441261  0.04594388    -0.16900
C3374       C  0.65361121  0.97975815  0.05008587     0.25200
C3375       C  0.64136055  0.97494852  0.04351483    -0.18600
C3376       C  0.64211758  0.96468858  0.03303600    -0.07500
C3377       C  0.65252116  0.98993604  0.06126339    -0.13900
C3378       C  0.65026567  0.99827477  0.07056331    -0.13700
C3379       C  0.64600931  0.00809087  0.08130027     0.25100
C3380       C  0.63208430  0.01280593  0.08161968    -0.19100
C3381       C  0.62772146  0.02233156  0.09190898    -0.07500
C3382       C  0.63724446  0.02735550  0.10206421    -0.03600
C3383       C  0.65123784  0.02252369  0.10171311    -0.08900
C3384       C  0.65557779  0.01291873  0.09140528    -0.16600
H3385       H  0.67770373  0.96003137  0.03247960     0.11600
H3386       H  0.67625964  0.97807355  0.05094376     0.10900
H3387       H  0.63117584  0.97902688  0.04660602     0.10800
H3388       H  0.63244051  0.96107720  0.02824045     0.11300
H3389       H  0.62458063  0.00914671  0.07386020     0.11400
H3390       H  0.61691962  0.02589184  0.09173358     0.11300
H3391       H  0.65880458  0.02606781  0.10943938     0.11500
H3392       H  0.66637571  0.00928536  0.09130753     0.10300
C3393       C  0.96840500  0.58198168  0.96948530    -0.03500
C3394       C  0.96294359  0.59442539  0.96362588    -0.09300
C3395       C  0.95284719  0.59383632  0.95287476    -0.16900
C3396       C  0.94810782  0.58082054  0.94785192     0.25200
C3397       C  0.95352364  0.56842967  0.95360872    -0.18600
C3398       C  0.96356562  0.56898646  0.96431622    -0.07500
C3399       C  0.93756039  0.57994868  0.93696081    -0.13900
C3400       C  0.92864907  0.57780078  0.92815537    -0.13700
C3401       C  0.91803556  0.57358555  0.91814499     0.25100
C3402       C  0.91515629  0.55929748  0.91630974    -0.19100
C3403       C  0.90480182  0.55495241  0.90683665    -0.07500
C3404       C  0.89708469  0.56483800  0.89895967    -0.03600
C3405       C  0.90007211  0.57922278  0.90085917    -0.08900
C3406       C  0.91047280  0.58355359  0.91038853    -0.16600
H3407       H  0.96646592  0.60459097  0.96733742     0.11600
H3408       H  0.94872788  0.60351001  0.94851485     0.10900
H3409       H  0.94994750  0.55829400  0.94983629     0.10800
H3410       H  0.96754474  0.55919729  0.96853476     0.11300
H3411       H  0.92092153  0.55146901  0.92224444     0.11400
H3412       H  0.90295661  0.54380603  0.90572265     0.11300
H3413       H  0.89438143  0.58716480  0.89505355     0.11500
H3414       H  0.91257993  0.59466004  0.91172691     0.10300
C3415       C  0.96828924  0.58250143  0.03132408    -0.03500
C3416       C  0.96241675  0.56973369  0.03592313    -0.09300
C3417       C  0.95178917  0.56961389  0.04607564    -0.16900
C3418       C  0.94686679  0.58222047  0.05183145     0.25200
C3419       C  0.95270556  0.59499665  0.04743965    -0.18600
C3420       C  0.96335394  0.59514809  0.03723999    -0.07500
C3421       C  0.93568138  0.58184454  0.06206030    -0.13900
C3422       C  0.92620012  0.58006560  0.07031411    -0.13700
C3423       C  0.91496413  0.57612125  0.07969078     0.25100
C3424       C  0.91078032  0.58495312  0.09071177    -0.19100
C3425       C  0.90026829  0.58061196  0.10009618    -0.07500
C3426       C  0.89389232  0.56733777  0.09859921    -0.03600
C3427       C  0.89801313  0.55869334  0.08731917    -0.08900
C3428       C  0.90845641  0.56305787  0.07796455    -0.16600
H3429       H  0.96595074  0.55981545  0.03160062     0.11600
H3430       H  0.94734373  0.55966262  0.04938432     0.10900
H3431       H  0.94898180  0.60482435  0.05182455     0.10800
H3432       H  0.96767211  0.60515085  0.03395155     0.11300
H3433       H  0.91576327  0.59508763  0.09216660     0.11400
H3434       H  0.89740668  0.58750319  0.10868803     0.11300
H3435       H  0.89322124  0.54851113  0.08569791     0.11500
H3436       H  0.91157687  0.55614784  0.06945356     0.10300
C3437       C  0.02939907  0.58200747  0.96952704    -0.03500
C3438       C  0.03396217  0.59451206  0.96305332    -0.09300
C3439       C  0.04410090  0.59413343  0.95235725    -0.16900
C3440       C  0.04982184  0.58127524  0.94805020     0.25200
C3441       C  0.04542510  0.56882378  0.95452166    -0.18600
C3442       C  0.03529347  0.56916818  0.96516159    -0.07500
C3443       C  0.06010305  0.58065037  0.93692563    -0.13900
C3444       C  0.06863757  0.57875856  0.92771796    -0.13700
C3445       C  0.07863938  0.57474907  0.91705599     0.25100
C3446       C  0.08101488  0.56049152  0.91449492    -0.19100
C3447       C  0.09073649  0.55630587  0.90432370    -0.07500
C3448       C  0.09830220  0.56632964  0.89646398    -0.03600
C3449       C  0.09581964  0.58069079  0.89909775    -0.08900
C3450       C  0.08604581  0.58486213  0.90933225    -0.16600
H3451       H  0.02962561  0.60456222  0.96616941     0.11600
H3452       H  0.04742478  0.60384071  0.94742088     0.10900
H3453       H  0.04979019  0.55881198  0.95129025     0.10800
H3454       H  0.03206334  0.55935965  0.96994614     0.11300
H3455       H  0.07535487  0.55256301  0.92040948     0.11400
H3456       H  0.09226830  0.54517291  0.90272966     0.11300
H3457       H  0.10138038  0.58872850  0.89328882     0.11500
H3458       H  0.08428923  0.59594841  0.91122715     0.10300
C3459       C  0.10207938  0.56509886  0.10072349    -0.03500
C3460       C  0.09435471  0.55500874  0.09310415    -0.09300
C3461       C  0.08445356  0.55911137  0.08307664    -0.16900
C3462       C  0.08203079  0.57335003  0.08044976     0.25200
C3463       C  0.08956713  0.58352107  0.08797075    -0.18600
C3464       C  0.09952696  0.57943501  0.09804536    -0.07500
C3465       C  0.07174664  0.57731385  0.07004138    -0.13900
C3466       C  0.06286841  0.57936314  0.06120149    -0.13700
C3467       C  0.05204687  0.58034298  0.05062487     0.25100
C3468       C  0.04501416  0.59303979  0.04815235    -0.19100
C3469       C  0.03426331  0.59371733  0.03808279    -0.07500
C3470       C  0.03036020  0.58165496  0.03045681    -0.03600
C3471       C  0.03755319  0.56898255  0.03299309    -0.08900
C3472       C  0.04832112  0.56835586  0.04296410    -0.16600
H3473       H  0.09594026  0.54389113  0.09473902     0.11600
H3474       H  0.07868493  0.55113452  0.07733484     0.10900
H3475       H  0.08776071  0.59459187  0.08604628     0.10800
H3476       H  0.10518972  0.58752112  0.10368732     0.11300
H3477       H  0.04778390  0.60238169  0.05404730     0.11400
H3478       H  0.02891437  0.60361367  0.03637761     0.11300
H3479       H  0.03489036  0.55952886  0.02723547     0.11500
H3480       H  0.05368373  0.55847339  0.04476855     0.10300
C3481       C  0.46926739  0.39592474  0.84480097    -0.03500
C3482       C  0.46486668  0.39000059  0.85762888    -0.09300
C3483       C  0.45400479  0.38014802  0.85795409    -0.16900
C3484       C  0.44734079  0.37606204  0.84549837     0.25200
C3485       C  0.45168121  0.38178889  0.83264061    -0.18600
C3486       C  0.46260677  0.39166565  0.83228027    -0.07500
C3487       C  0.43604478  0.36602347  0.84615944    -0.13900
C3488       C  0.42687561  0.35754142  0.84830456    -0.13700
C3489       C  0.41657824  0.34736066  0.85267676     0.25100
C3490       C  0.40593770  0.34290804  0.84353237    -0.19100
C3491       C  0.39606519  0.33293563  0.84800663    -0.07500
C3492       C  0.39672004  0.32733203  0.86170353    -0.03600
C3493       C  0.40744671  0.33196252  0.87079036    -0.08900
C3494       C  0.41727459  0.34188346  0.86629950    -0.16600
H3495       H  0.46977407  0.39301433  0.86745566     0.11600
H3496       H  0.45075045  0.37575717  0.86795868     0.10900
H3497       H  0.44659449  0.37867910  0.82293077     0.10800
H3498       H  0.46574027  0.39605323  0.82224791     0.11300
H3499       H  0.40527450  0.34712620  0.83296938     0.11400
H3500       H  0.38790190  0.32971613  0.84076629     0.11300
H3501       H  0.40841287  0.32784349  0.88134442     0.11500
H3502       H  0.42547286  0.34525592  0.87346504     0.10300
C3503       C  0.53163299  0.39648353  0.84430065    -0.03500
C3504       C  0.53915184  0.39362496  0.83186106    -0.09300
C3505       C  0.55032009  0.38404274  0.83194121    -0.16900
C3506       C  0.55402335  0.37718949  0.84442530     0.25200
C3507       C  0.54657476  0.37995732  0.85681248    -0.18600
C3508       C  0.53548093  0.38955006  0.85677503    -0.07500
C3509       C  0.56537904  0.36722877  0.84474041    -0.13900
C3510       C  0.57449073  0.35864630  0.84663913    -0.13700
C3511       C  0.58469935  0.34836915  0.85092360     0.25100
C3512       C  0.58706602  0.34624590  0.86526964    -0.19100
C3513       C  0.59664347  0.33609923  0.86974700    -0.07500
C3514       C  0.60404256  0.32785372  0.85992318    -0.03600
C3515       C  0.60163603  0.33011039  0.84547275    -0.08900
C3516       C  0.59200386  0.34030878  0.84100927    -0.16600
H3517       H  0.53650066  0.39889041  0.82212033     0.11600
H3518       H  0.55604758  0.38199075  0.82230159     0.10900
H3519       H  0.54935929  0.37469720  0.86652972     0.10800
H3520       H  0.52991102  0.39152090  0.86651842     0.11300
H3521       H  0.58144823  0.35242201  0.87303324     0.11400
H3522       H  0.59822298  0.33482603  0.88093224     0.11300
H3523       H  0.60706430  0.32395457  0.83759701     0.11500
H3524       H  0.59020124  0.34184219  0.82986167     0.10300
C3525       C  0.47012629  0.45733083  0.84591235    -0.03500
C3526       C  0.46560228  0.46275633  0.85891277    -0.09300
C3527       C  0.45587294  0.47371515  0.85941667    -0.16900
C3528       C  0.45050785  0.47940402  0.84696658     0.25200
C3529       C  0.45487539  0.47406449  0.83395863    -0.18600
C3530       C  0.46464582  0.46308193  0.83342104    -0.07500
C3531       C  0.44047755  0.49066793  0.84773888    -0.13900
C3532       C  0.43206409  0.49991884  0.84971355    -0.13700
C3533       C  0.42207949  0.51057222  0.85359533     0.25100
C3534       C  0.41156449  0.51477998  0.84421029    -0.19100
C3535       C  0.40150995  0.52468633  0.84837026    -0.07500
C3536       C  0.40183988  0.53046783  0.86200240    -0.03600
C3537       C  0.41259069  0.52625504  0.87127212    -0.08900
C3538       C  0.42260954  0.51638506  0.86708887    -0.16600
H3539       H  0.46963503  0.45859724  0.86871539     0.11600
H3540       H  0.45254473  0.47777409  0.86953802     0.10900
H3541       H  0.45076113  0.47839471  0.82425861     0.10800
H3542       H  0.46793927  0.45914207  0.82325170     0.11300
H3543       H  0.41103634  0.51029029  0.83374823     0.11400
H3544       H  0.39338121  0.52761102  0.84097520     0.11300
H3545       H  0.41333794  0.53054640  0.88177744     0.11500
H3546       H  0.43070868  0.51318852  0.87444098     0.10300
C3547       C  0.53092979  0.45678681  0.84589452    -0.03500
C3548       C  0.53658734  0.46242549  0.83343120    -0.09300
C3549       C  0.54726629  0.47252894  0.83401708    -0.16900
C3550       C  0.55237978  0.47709372  0.84704315     0.25200
C3551       C  0.54673222  0.47162693  0.85947581    -0.18600
C3552       C  0.53608458  0.46155102  0.85892347    -0.07500
C3553       C  0.56346711  0.48732503  0.84781565    -0.13900
C3554       C  0.57267078  0.49582359  0.84965367    -0.13700
C3555       C  0.58332393  0.50586192  0.85338682     0.25100
C3556       C  0.58939994  0.50524752  0.86675728    -0.19100
C3557       C  0.59909420  0.51542984  0.87091811    -0.07500
C3558       C  0.60287661  0.52639031  0.86173918    -0.03600
C3559       C  0.59700528  0.52673519  0.84816462    -0.08900
C3560       C  0.58722071  0.51654009  0.84403614    -0.16600
H3561       H  0.53282692  0.45898228  0.82324717     0.11600
H3562       H  0.55156568  0.47672576  0.82433334     0.10900
H3563       H  0.55060647  0.47511339  0.86961355     0.10800
H3564       H  0.53194824  0.45744906  0.86871292     0.11300
H3565       H  0.58648394  0.49700160  0.87405949     0.11400
H3566       H  0.60358601  0.51470239  0.88134856     0.11300
H3567       H  0.59967262  0.53506584  0.84088840     0.11500
H3568       H  0.58253811  0.51711544  0.83366413     0.10300
C3569       C  0.40163920  0.32124589  0.14134718    -0.03500
C3570       C  0.39934015  0.32861448  0.15398308    -0.09300
C3571       C  0.40850868  0.33938943  0.15809850    -0.16900
C3572       C  0.42011105  0.34282815  0.14969006     0.25200
C3573       C  0.42260070  0.33536228  0.13726616    -0.18600
C3574       C  0.41345391  0.32466628  0.13311724    -0.07500
C3575       C  0.42940614  0.35415901  0.15348532    -0.13900
C3576       C  0.43769080  0.36356428  0.15541451    -0.13700
C3577       C  0.44804631  0.37457558  0.15629156     0.25100
C3578       C  0.45397730  0.37990432  0.14392608    -0.19100
C3579       C  0.46425509  0.39036843  0.14456798    -0.07500
C3580       C  0.46879354  0.39567053  0.15762238    -0.03600
C3581       C  0.46273803  0.39029514  0.17002387    -0.08900
C3582       C  0.45242033  0.37980327  0.16934880    -0.16600
H3583       H  0.39030522  0.32629752  0.16051230     0.11600
H3584       H  0.40646885  0.34511980  0.16773540     0.10900
H3585       H  0.43157089  0.33789499  0.13069965     0.10800
H3586       H  0.41566879  0.31909350  0.12344379     0.11300
H3587       H  0.45069588  0.37591989  0.13376264     0.11400
H3588       H  0.46867592  0.39426597  0.13481999     0.11300
H3589       H  0.46597745  0.39417513  0.18023024     0.11500
H3590       H  0.44790981  0.37573690  0.17899180     0.10300
C3591       C  0.46723609  0.45629447  0.15863905    -0.03500
C3592       C  0.46180342  0.46196501  0.17120363    -0.09300
C3593       C  0.45065295  0.47160312  0.17085279    -0.16900
C3594       C  0.44479544  0.47565786  0.15795706     0.25200
C3595       C  0.45016072  0.47007976  0.14543939    -0.18600
C3596       C  0.46128272  0.46050038  0.14575766    -0.07500
C3597       C  0.43325257  0.48546888  0.15733805    -0.13900
C3598       C  0.42362278  0.49347487  0.15527004    -0.13700
C3599       C  0.41237296  0.50265308  0.15091302     0.25100
C3600       C  0.40713614  0.50155574  0.13721197    -0.19100
C3601       C  0.39668792  0.51072712  0.13251107    -0.07500
C3602       C  0.39128052  0.52120807  0.14144369    -0.03600
C3603       C  0.39638888  0.52206679  0.15532920    -0.08900
C3604       C  0.40690625  0.51286394  0.16001390    -0.16600
H3605       H  0.46613904  0.45893618  0.18128714     0.11600
H3606       H  0.44658772  0.47584754  0.18061732     0.10900
H3607       H  0.44571184  0.47311677  0.13539627     0.10800
H3608       H  0.46515410  0.45632414  0.13589049     0.11300
H3609       H  0.41125038  0.49367753  0.13007911     0.11400
H3610       H  0.39290788  0.50959336  0.12183997     0.11300
H3611       H  0.39253026  0.53003151  0.16247757     0.11500
H3612       H  0.41088978  0.51383470  0.17064603     0.10300
C3613       C  0.53075188  0.39705016  0.15794103    -0.03500
C3614       C  0.53432321  0.38896767  0.16981621    -0.09300
C3615       C  0.54519437  0.37902716  0.16906401    -0.16900
C3616       C  0.55266622  0.37715850  0.15648461     0.25200
C3617       C  0.54920707  0.38522368  0.14469091    -0.18600
C3618       C  0.53833176  0.39504907  0.14538521    -0.07500
C3619       C  0.56374248  0.36687037  0.15536868    -0.13900
C3620       C  0.57290182  0.35842812  0.15292827    -0.13700
C3621       C  0.58344422  0.34852635  0.14838120     0.25100
C3622       C  0.58552617  0.34630238  0.13398997    -0.19100
C3623       C  0.59543950  0.33651383  0.12934452    -0.07500
C3624       C  0.60348406  0.32872516  0.13903444    -0.03600
C3625       C  0.60142678  0.33116225  0.15351754    -0.08900
C3626       C  0.59147021  0.34099222  0.15814508    -0.16600
H3627       H  0.52864531  0.39023794  0.17961268     0.11600
H3628       H  0.54774085  0.37279965  0.17825307     0.10900
H3629       H  0.55489670  0.38387598  0.13490101     0.10800
H3630       H  0.53591470  0.40114674  0.13607915     0.11300
H3631       H  0.57938918  0.35207729  0.12632303     0.11400
H3632       H  0.59662135  0.33501323  0.11813695     0.11300
H3633       H  0.60743529  0.32547873  0.16131393     0.11500
H3634       H  0.58997974  0.34264678  0.16932371     0.10300
C3635       C  0.52943187  0.45782541  0.15905587    -0.03500
C3636       C  0.53452455  0.46308319  0.14618814    -0.09300
C3637       C  0.54488167  0.47348154  0.14592666    -0.16900
C3638       C  0.55035642  0.47882528  0.15848956     0.25200
C3639       C  0.54539890  0.47368165  0.17138436    -0.18600
C3640       C  0.53499353  0.46323228  0.17167721    -0.07500
C3641       C  0.56111677  0.48949378  0.15789647    -0.13900
C3642       C  0.57010733  0.49822368  0.15585431    -0.13700
C3643       C  0.58069049  0.50825208  0.15167829     0.25100
C3644       C  0.59189430  0.51162591  0.16063451    -0.19100
C3645       C  0.60247435  0.52084390  0.15610912    -0.07500
C3646       C  0.60203023  0.52667106  0.14251266    -0.03600
C3647       C  0.59063253  0.52334376  0.13368624    -0.08900
C3648       C  0.58004662  0.51424083  0.13825518    -0.16600
H3649       H  0.53052107  0.45915579  0.13627508     0.11600
H3650       H  0.54864409  0.47735064  0.13588495     0.10900
H3651       H  0.54957564  0.47772044  0.18118574     0.10800
H3652       H  0.53131986  0.45939243  0.18175174     0.11300
H3653       H  0.59254630  0.50700619  0.17102698     0.11400
H3654       H  0.61114627  0.52314452  0.16311686     0.11300
H3655       H  0.58984842  0.52779331  0.12324207     0.11500
H3656       H  0.57143060  0.51172992  0.13122853     0.10300
C3657       C  0.84625817  0.39427404  0.47006805    -0.03500
C3658       C  0.83390220  0.38838616  0.46442717    -0.09300
C3659       C  0.83466060  0.37811423  0.45390093    -0.16900
C3660       C  0.84775782  0.37359943  0.44891032     0.25200
C3661       C  0.86008992  0.37926962  0.45458676    -0.18600
C3662       C  0.85936411  0.38951773  0.46508543    -0.07500
C3663       C  0.84869325  0.36335816  0.43779605    -0.13900
C3664       C  0.85062198  0.35504002  0.42841756    -0.13700
C3665       C  0.85447429  0.34545461  0.41734901     0.25100
C3666       C  0.86842176  0.34506024  0.41274038    -0.19100
C3667       C  0.87249679  0.33562567  0.40227033    -0.07500
C3668       C  0.86267328  0.32633931  0.39621624    -0.03600
C3669       C  0.84858864  0.32694012  0.40079473    -0.08900
C3670       C  0.84452718  0.33643959  0.41130649    -0.16600
H3671       H  0.82365854  0.39181292  0.46803743     0.11600
H3672       H  0.82504647  0.37379034  0.44958002     0.10900
H3673       H  0.87028690  0.37585239  0.45080662     0.10800
H3674       H  0.86907995  0.39380723  0.46919549     0.11300
H3675       H  0.87620708  0.35201655  0.41731317     0.11400
H3676       H  0.88338691  0.33565876  0.39902509     0.11300
H3677       H  0.84071477  0.32000195  0.39641623     0.11500
H3678       H  0.83367909  0.33667187  0.41478839     0.10300
C3679       C  0.84536854  0.39701600  0.53172952    -0.03500
C3680       C  0.83278689  0.39197808  0.53770618    -0.09300
C3681       C  0.83312244  0.38193618  0.54845856    -0.16900
C3682       C  0.84601955  0.37681333  0.55335143     0.25200
C3683       C  0.85857312  0.38183554  0.54753224    -0.18600
C3684       C  0.85826930  0.39186682  0.53681309    -0.07500
C3685       C  0.84654866  0.36638565  0.56430503    -0.13900
C3686       C  0.84834868  0.35774547  0.57340319    -0.13700
C3687       C  0.85232701  0.34778678  0.58407741     0.25100
C3688       C  0.86585479  0.34846714  0.58978184    -0.19100
C3689       C  0.87017585  0.33863255  0.59976336    -0.07500
C3690       C  0.86101871  0.32790664  0.60422733    -0.03600
C3691       C  0.84732686  0.32740814  0.59859718    -0.08900
C3692       C  0.84302492  0.33727968  0.58854060    -0.16600
H3693       H  0.82268865  0.39576010  0.53405417     0.11600
H3694       H  0.82334160  0.37814451  0.55291154     0.10900
H3695       H  0.86861828  0.37795764  0.55125823     0.10800
H3696       H  0.86814144  0.39552429  0.53246269     0.11300
H3697       H  0.87313336  0.35656772  0.58642620     0.11400
H3698       H  0.88070329  0.33950246  0.60397787     0.11300
H3699       H  0.84002983  0.31926545  0.60173989     0.11500
H3700       H  0.83252651  0.33663338  0.58416230     0.10300
C3701       C  0.84411465  0.45527051  0.46750489    -0.03500
C3702       C  0.85683496  0.46110781  0.46272013    -0.09300
C3703       C  0.85684599  0.47137808  0.45224766    -0.16900
C3704       C  0.84417828  0.47596759  0.44635901     0.25200
C3705       C  0.83144439  0.47012389  0.45089597    -0.18600
C3706       C  0.83140165  0.45982027  0.46141782    -0.07500
C3707       C  0.84448736  0.48681929  0.43582646    -0.13900
C3708       C  0.84643121  0.49598935  0.42729738    -0.13700
C3709       C  0.85071593  0.50675169  0.41756544     0.25100
C3710       C  0.84126072  0.51233795  0.40776913    -0.19100
C3711       C  0.84578048  0.52252733  0.39813720    -0.07500
C3712       C  0.85983604  0.52720642  0.39817474    -0.03600
C3713       C  0.86917483  0.52159518  0.40819348    -0.08900
C3714       C  0.86463958  0.51146330  0.41778467    -0.16600
H3715       H  0.86679938  0.45784276  0.46715615     0.11600
H3716       H  0.86676155  0.47582498  0.44880475     0.10900
H3717       H  0.82157413  0.47359026  0.44638943     0.10800
H3718       H  0.82143575  0.45550204  0.46484814     0.11300
H3719       H  0.83045142  0.50874593  0.40749743     0.11400
H3720       H  0.83831592  0.52655212  0.39055832     0.11300
H3721       H  0.88000573  0.52501836  0.40871634     0.11500
H3722       H  0.87204347  0.50723555  0.42534622     0.10300
C3723       C  0.84382366  0.45809028  0.52884238    -0.03500
C3724       C  0.85616783  0.46131176  0.53632865    -0.09300
C3725       C  0.85629112  0.47215787  0.54621636    -0.16900
C3726       C  0.84412714  0.48002810  0.54874027     0.25200
C3727       C  0.83174369  0.47689963  0.54139094    -0.18600
C3728       C  0.83156728  0.46594366  0.53152569    -0.07500
C3729       C  0.84464911  0.49140854  0.55872936    -0.13900
C3730       C  0.84662641  0.50073645  0.56710130    -0.13700
C3731       C  0.85075244  0.51146896  0.57696897     0.25100
C3732       C  0.84074336  0.51855765  0.58511884    -0.19100
C3733       C  0.84502192  0.52871492  0.59490490    -0.07500
C3734       C  0.85939041  0.53188149  0.59668249    -0.03600
C3735       C  0.86931089  0.52476467  0.58829459    -0.08900
C3736       C  0.86501719  0.51465539  0.57855572    -0.16600
H3737       H  0.86575137  0.45541512  0.53457847     0.11600
H3738       H  0.86592886  0.47446681  0.55184468     0.10900
H3739       H  0.82226956  0.48294865  0.54323411     0.10800
H3740       H  0.82192211  0.46373418  0.52588830     0.11300
H3741       H  0.82965996  0.51616727  0.58399066     0.11400
H3742       H  0.83707585  0.53391453  0.60116880     0.11300
H3743       H  0.88043209  0.52695056  0.58917982     0.11500
H3744       H  0.87286443  0.50925794  0.57229089     0.10300
C3745       C  0.46724069  0.76887213  0.47102279    -0.03500
C3746       C  0.45942754  0.78120523  0.46869305    -0.09300
C3747       C  0.44867447  0.78146784  0.45869418    -0.16900
C3748       C  0.44556345  0.76944760  0.45081295     0.25200
C3749       C  0.45314076  0.75704111  0.45316498    -0.18600
C3750       C  0.46388553  0.75672687  0.46326224    -0.07500
C3751       C  0.43487121  0.77017008  0.44007695    -0.13900
C3752       C  0.42609384  0.77220155  0.43112617    -0.13700
C3753       C  0.41595466  0.77631392  0.42062032     0.25100
C3754       C  0.40418370  0.76793899  0.41770951    -0.19100
C3755       C  0.39408711  0.77246326  0.40795538    -0.07500
C3756       C  0.39560030  0.78548580  0.40110492    -0.03600
C3757       C  0.40758626  0.79368247  0.40396046    -0.08900
C3758       C  0.41766532  0.78911972  0.41361419    -0.16600
H3759       H  0.46165506  0.79069939  0.47456759     0.11600
H3760       H  0.44288237  0.79112361  0.45699315     0.10900
H3761       H  0.45084555  0.74767184  0.44711218     0.10800
H3762       H  0.46971330  0.74707840  0.46481974     0.11300
H3763       H  0.40271930  0.75801771  0.42309747     0.11400
H3764       H  0.38496480  0.76593451  0.40603101     0.11300
H3765       H  0.40923024  0.80364367  0.39873142     0.11500
H3766       H  0.42673494  0.79568448  0.41574011     0.10300
C3767       C  0.52925888  0.77138076  0.46845749    -0.03500
C3768       C  0.53496167  0.75907746  0.46252242    -0.09300
C3769       C  0.54535786  0.75991206  0.45211016    -0.16900
C3770       C  0.55018259  0.77303418  0.44752210     0.25200
C3771       C  0.54454913  0.78530636  0.45335336    -0.18600
C3772       C  0.53416882  0.78450434  0.46373012    -0.07500
C3773       C  0.56087670  0.77407482  0.43682749    -0.13900
C3774       C  0.56968430  0.77615099  0.42792255    -0.13700
C3775       C  0.57986870  0.78020534  0.41745254     0.25100
C3776       C  0.57979094  0.79396864  0.41233422    -0.19100
C3777       C  0.58978726  0.79826171  0.40247151    -0.07500
C3778       C  0.60010042  0.78884926  0.39754250    -0.03600
C3779       C  0.59999901  0.77494573  0.40261879    -0.08900
C3780       C  0.58995240  0.77066640  0.41253473    -0.16600
H3781       H  0.53142014  0.74881655  0.46593890     0.11600
H3782       H  0.54963631  0.75034072  0.44766392     0.10900
H3783       H  0.54819907  0.79552158  0.44988416     0.10800
H3784       H  0.53003905  0.79417548  0.46808685     0.11300
H3785       H  0.57202034  0.80143846  0.41603270     0.11400
H3786       H  0.58934983  0.80897779  0.39873008     0.11300
H3787       H  0.60777911  0.76742239  0.39912099     0.11500
H3788       H  0.59012318  0.75997478  0.41643809     0.10300
C3789       C  0.47000056  0.76805136  0.53181220    -0.03500
C3790       C  0.46534797  0.75523242  0.53756955    -0.09300
C3791       C  0.45508516  0.75508730  0.54815660    -0.16900
C3792       C  0.44938613  0.76773772  0.55306774     0.25200
C3793       C  0.45397600  0.78049488  0.54740161    -0.18600
C3794       C  0.46419881  0.78067100  0.53687695    -0.07500
C3795       C  0.43886232  0.76792465  0.56394240    -0.13900
C3796       C  0.43014355  0.77004216  0.57290310    -0.13700
C3797       C  0.42008028  0.77483003  0.58314045     0.25100
C3798       C  0.41694752  0.78915653  0.58385704    -0.19100
C3799       C  0.40733046  0.79414077  0.59375251    -0.07500
C3800       C  0.40064999  0.78485524  0.60314817    -0.03600
C3801       C  0.40385519  0.77042509  0.60234627    -0.08900
C3802       C  0.41352928  0.76545023  0.59239721    -0.16600
H3803       H  0.46961280  0.74534288  0.53388978     0.11600
H3804       H  0.45160533  0.74514895  0.55248675     0.10900
H3805       H  0.44963523  0.79034593  0.55112973     0.10800
H3806       H  0.46751445  0.79071599  0.53267883     0.11300
H3807       H  0.42195582  0.79651153  0.57673468     0.11400
H3808       H  0.40510330  0.80527568  0.59389452     0.11300
H3809       H  0.39900317  0.76297656  0.60943917     0.11500
H3810       H  0.41591500  0.75432929  0.59195357     0.10300
C3811       C  0.53128377  0.77082702  0.52956485    -0.03500
C3812       C  0.53496186  0.78373464  0.53578419    -0.09300
C3813       C  0.54537194  0.78434356  0.54612093    -0.16900
C3814       C  0.55229707  0.77209648  0.55037175     0.25200
C3815       C  0.54885385  0.75921649  0.54414904    -0.18600
C3816       C  0.53839005  0.75856958  0.53380930    -0.07500
C3817       C  0.56283321  0.77289821  0.56119790    -0.13900
C3818       C  0.57144944  0.77480899  0.57029498    -0.13700
C3819       C  0.58146036  0.77874747  0.58092728     0.25100
C3820       C  0.58656354  0.76889182  0.59058836    -0.19100
C3821       C  0.59607899  0.77304027  0.60104577    -0.07500
C3822       C  0.60056021  0.78711940  0.60196419    -0.03600
C3823       C  0.59541214  0.79686541  0.59208988    -0.08900
C3824       C  0.58593996  0.79270474  0.58169706    -0.16600
H3825       H  0.52970295  0.79336493  0.53277026     0.11600
H3826       H  0.54797052  0.79437278  0.55085704     0.10900
H3827       H  0.55418801  0.74967940  0.54733969     0.10800
H3828       H  0.53583829  0.74849001  0.52918096     0.11300
H3829       H  0.58312854  0.75804883  0.59009814     0.11400
H3830       H  0.59975252  0.76525405  0.60846981     0.11300
H3831       H  0.59867097  0.80774255  0.59229077     0.11500
H3832       H  0.58206194  0.80041922  0.57426577     0.10300
C3833       C  0.15516286  0.39849312  0.47033195    -0.03500
C3834       C  0.16740088  0.39439349  0.46306333    -0.09300
C3835       C  0.16680721  0.38384441  0.45277781    -0.16900
C3836       C  0.15400836  0.37722110  0.44970779     0.25200
C3837       C  0.14184534  0.38113459  0.45701175    -0.18600
C3838       C  0.14239526  0.39169236  0.46721133    -0.07500
C3839       C  0.15311872  0.36655290  0.43896384    -0.13900
C3840       C  0.15107327  0.35768515  0.43010928    -0.13700
C3841       C  0.14709112  0.34723632  0.41986651     0.25100
C3842       C  0.13343440  0.34178320  0.42008500    -0.19100
C3843       C  0.12924395  0.33189266  0.41007109    -0.07500
C3844       C  0.13865924  0.32726588  0.39961686    -0.03600
C3845       C  0.15243984  0.33270571  0.39954725    -0.08900
C3846       C  0.15661048  0.34265039  0.40959708    -0.16600
H3847       H  0.17738192  0.39943698  0.46521171     0.11600
H3848       H  0.17629472  0.38091364  0.44718533     0.10900
H3849       H  0.13188570  0.37607511  0.45475583     0.10800
H3850       H  0.13279919  0.39452259  0.47265981     0.11300
H3851       H  0.12597450  0.34522733  0.42798993     0.11400
H3852       H  0.11862182  0.32786424  0.41061210     0.11300
H3853       H  0.15995027  0.32946206  0.39163413     0.11500
H3854       H  0.16721044  0.34681953  0.40929761     0.10300
C3855       C  0.13951934  0.52823228  0.39634074    -0.03500
C3856       C  0.13033160  0.51768484  0.40115071    -0.09300
C3857       C  0.13485939  0.50778885  0.41097999    -0.16900
C3858       C  0.14861245  0.50826890  0.41615763     0.25200
C3859       C  0.15792549  0.51856927  0.41130603    -0.18600
C3860       C  0.15342332  0.52848464  0.40141903    -0.07500
C3861       C  0.15283809  0.49843539  0.42681233    -0.13900
C3862       C  0.15490671  0.49001865  0.43603776    -0.13700
C3863       C  0.15548092  0.47979717  0.44714165     0.25100
C3864       C  0.16821131  0.47647726  0.45374871    -0.19100
C3865       C  0.16850025  0.46648079  0.46455336    -0.07500
C3866       C  0.15602751  0.45977292  0.46887166    -0.03600
C3867       C  0.14330876  0.46326662  0.46218478    -0.08900
C3868       C  0.14306009  0.47318065  0.45139323    -0.16600
H3869       H  0.11963056  0.51702919  0.39734815     0.11600
H3870       H  0.12757168  0.49983823  0.41466009     0.10900
H3871       H  0.16858873  0.51904944  0.41529126     0.10800
H3872       H  0.16074498  0.53649262  0.39800429     0.11300
H3873       H  0.17788070  0.48158775  0.45055194     0.11400
H3874       H  0.17844086  0.46404182  0.46954130     0.11300
H3875       H  0.13353123  0.45827829  0.46522621     0.11500
H3876       H  0.13315233  0.47569064  0.44635248     0.10300
C3877       C  0.15480750  0.40005421  0.53154241    -0.03500
C3878       C  0.16720598  0.39396817  0.53684781    -0.09300
C3879       C  0.16652305  0.38365266  0.54732184    -0.16900
C3880       C  0.15346393  0.37935361  0.55259928     0.25200
C3881       C  0.14111112  0.38542301  0.54744384    -0.18600
C3882       C  0.14175913  0.39569215  0.53699927    -0.07500
C3883       C  0.15253213  0.36854739  0.56311567    -0.13900
C3884       C  0.15045832  0.35942539  0.57164971    -0.13700
C3885       C  0.14648058  0.34857402  0.58138551     0.25100
C3886       C  0.13232562  0.34481308  0.58256948    -0.19100
C3887       C  0.12824307  0.33423785  0.59187545    -0.07500
C3888       C  0.13827957  0.32721527  0.60019856    -0.03600
C3889       C  0.15252541  0.33110420  0.59893343    -0.08900
C3890       C  0.15658664  0.34171929  0.58957905    -0.16600
H3891       H  0.17740240  0.39710869  0.53285806     0.11600
H3892       H  0.17614781  0.37899083  0.55123989     0.10900
H3893       H  0.13094978  0.38215539  0.55144937     0.10800
H3894       H  0.13201732  0.40017152  0.53317061     0.11300
H3895       H  0.12441322  0.35005517  0.57626473     0.11400
H3896       H  0.11719687  0.33164148  0.59246558     0.11300
H3897       H  0.16056910  0.32599078  0.60512391     0.11500
H3898       H  0.16758983  0.34455908  0.58872912     0.10300
C3899       C  0.15577900  0.46123300  0.53046151    -0.03500
C3900       C  0.14289773  0.46608513  0.53590309    -0.09300
C3901       C  0.14257569  0.47685732  0.54587634    -0.16900
C3902       C  0.15509059  0.48298677  0.55058819     0.25200
C3903       C  0.16799965  0.47814059  0.54539376    -0.18600
C3904       C  0.16835404  0.46730704  0.53539840    -0.07500
C3905       C  0.15443202  0.49441752  0.56052245    -0.13900
C3906       C  0.15228025  0.50396181  0.56860857    -0.13700
C3907       C  0.14779157  0.51500272  0.57797435     0.25100
C3908       C  0.15737792  0.52192395  0.58675292    -0.19100
C3909       C  0.15265461  0.53220395  0.59620823    -0.07500
C3910       C  0.13825896  0.53563780  0.59703240    -0.03600
C3911       C  0.12880743  0.52881355  0.58791213    -0.08900
C3912       C  0.13354222  0.51858966  0.57850010    -0.16600
H3913       H  0.13302663  0.46161631  0.53239980     0.11600
H3914       H  0.13252353  0.48049853  0.54983149     0.10900
H3915       H  0.17776124  0.48279793  0.54897231     0.10800
H3916       H  0.17843962  0.46379090  0.53144383     0.11300
H3917       H  0.16844812  0.51925111  0.58642912     0.11400
H3918       H  0.16024584  0.53720114  0.60304898     0.11300
H3919       H  0.11770752  0.53127277  0.58803964     0.11500
H3920       H  0.12602804  0.51335530  0.57171379     0.10300
C3921       C  0.39757517  0.06623475  0.40255605    -0.03500
C3922       C  0.40474820  0.05646779  0.41104897    -0.09300
C3923       C  0.41500957  0.06090071  0.42056297    -0.16900
C3924       C  0.41830536  0.07515767  0.42181702     0.25200
C3925       C  0.41120430  0.08502342  0.41351662    -0.18600
C3926       C  0.40088712  0.08060152  0.40395131    -0.07500
C3927       C  0.42898166  0.07942623  0.43169311    -0.13900
C3928       C  0.43803306  0.08156173  0.44033188    -0.13700
C3929       C  0.44881583  0.08249806  0.45094349     0.25100
C3930       C  0.45533352  0.09533676  0.45401259    -0.19100
C3931       C  0.46585256  0.09602673  0.46431298    -0.07500
C3932       C  0.47001426  0.08385019  0.47160796    -0.03600
C3933       C  0.46336483  0.07102118  0.46844544    -0.08900
C3934       C  0.45284218  0.07037279  0.45821707    -0.16600
H3935       H  0.40244644  0.04536040  0.41045757     0.11600
H3936       H  0.42039267  0.05316911  0.42696522     0.10900
H3937       H  0.41366261  0.09610407  0.41440152     0.10800
H3938       H  0.39565100  0.08842601  0.39758038     0.11300
H3939       H  0.45231645  0.10478968  0.44843419     0.11400
H3940       H  0.47080930  0.10604269  0.46646811     0.11300
H3941       H  0.46628249  0.06145919  0.47388136     0.11500
H3942       H  0.44786812  0.06037997  0.45594632     0.10300
C3943       C  0.47223690  0.08475013  0.53305629    -0.03500
C3944       C  0.46503857  0.09710441  0.53689861    -0.09300
C3945       C  0.45456634  0.09676583  0.54728704    -0.16900
C3946       C  0.45122014  0.08410599  0.55401947     0.25200
C3947       C  0.45848584  0.07183482  0.55039879    -0.18600
C3948       C  0.46888646  0.07213285  0.54000098    -0.07500
C3949       C  0.44019785  0.08345323  0.56445672    -0.13900
C3950       C  0.43109800  0.08146557  0.57311329    -0.13700
C3951       C  0.42062525  0.07723045  0.58326921     0.25100
C3952       C  0.41683647  0.06306180  0.58413406    -0.19100
C3953       C  0.40720246  0.05855560  0.59426694    -0.07500
C3954       C  0.40114112  0.06815623  0.60376761    -0.03600
C3955       C  0.40476985  0.08246313  0.60265671    -0.08900
C3956       C  0.41449266  0.08695958  0.59249113    -0.16600
H3957       H  0.46735197  0.10698120  0.53174031     0.11600
H3958       H  0.44901867  0.10633753  0.54997978     0.10900
H3959       H  0.45601820  0.06197558  0.55553797     0.10800
H3960       H  0.47425795  0.06245258  0.53735866     0.11300
H3961       H  0.42145104  0.05543206  0.57703563     0.11400
H3962       H  0.40453074  0.04751527  0.59460191     0.11300
H3963       H  0.40034311  0.09013241  0.60980406     0.11500
H3964       H  0.41733917  0.09796748  0.59193847     0.10300
C3965       C  0.60362881  0.06889615  0.40016001    -0.03500
C3966       C  0.59805405  0.08258039  0.39947684    -0.09300
C3967       C  0.58808650  0.08707303  0.40936443    -0.16900
C3968       C  0.58368053  0.07797609  0.42007238     0.25200
C3969       C  0.58950303  0.06452989  0.42106333    -0.18600
C3970       C  0.59939386  0.06001620  0.41120709    -0.07500
C3971       C  0.57274994  0.08199465  0.42974434    -0.13900
C3972       C  0.56335064  0.08383363  0.43806209    -0.13700
C3973       C  0.55216334  0.08439624  0.44825430     0.25100
C3974       C  0.54496528  0.07206398  0.45178846    -0.19100
C3975       C  0.53457687  0.07226737  0.46218716    -0.07500
C3976       C  0.53120200  0.08484865  0.46918211    -0.03600
C3977       C  0.53827817  0.09727117  0.46534956    -0.08900
C3978       C  0.54873555  0.09702510  0.45497683    -0.16600
H3979       H  0.60107195  0.08967149  0.39110630     0.11600
H3980       H  0.58363596  0.09751420  0.40850064     0.10900
H3981       H  0.58621426  0.05742172  0.42934125     0.10800
H3982       H  0.60363465  0.04952281  0.41223826     0.11300
H3983       H  0.54752094  0.06223232  0.44663312     0.11400
H3984       H  0.52926274  0.06255107  0.46481679     0.11300
H3985       H  0.53591899  0.10712190  0.47054192     0.11500
H3986       H  0.55425190  0.10663010  0.45233150     0.10300
C3987       C  0.53364954  0.08499895  0.53067964    -0.03500
C3988       C  0.53774784  0.07221104  0.53686517    -0.09300
C3989       C  0.54820543  0.07189790  0.54715648    -0.16900
C3990       C  0.55480450  0.08432197  0.55141650     0.25200
C3991       C  0.55091531  0.09712079  0.54527058    -0.18600
C3992       C  0.54037274  0.09747138  0.53496342    -0.07500
C3993       C  0.56543308  0.08369125  0.56219469    -0.13900
C3994       C  0.57395861  0.08147873  0.57132636    -0.13700
C3995       C  0.58352510  0.07687205  0.58212770     0.25100
C3996       C  0.59362102  0.08597173  0.58778296    -0.19100
C3997       C  0.60296695  0.08115374  0.59811212    -0.07500
C3998       C  0.60233365  0.06714800  0.60288352    -0.03600
C3999       C  0.59204813  0.05817200  0.59716376    -0.08900
C4000       C  0.58275716  0.06299949  0.58688725    -0.16600
H4001       H  0.53278204  0.06242176  0.53385283     0.11600
H4002       H  0.55111263  0.06193506  0.55184429     0.10900
H4003       H  0.55596841  0.10680736  0.54847972     0.10800
H4004       H  0.53748279  0.10747132  0.53037059     0.11300
H4005       H  0.59432168  0.09674288  0.58416608     0.11400
H4006       H  0.61074690  0.08836590  0.60220825     0.11300
H4007       H  0.59106757  0.04739353  0.60060779     0.11500
H4008       H  0.57496824  0.05586470  0.58261028     0.10300
loop_ 
_geom_bond_atom_site_label_1 
_geom_bond_atom_site_label_2 
_geom_bond_distance 
_geom_bond_site_symmetry_2 
_ccdc_geom_bond_type 
O1           Cu9   2.011       .  S
O1           C11   1.278       .  A
O2           Cu9   2.018       .  S
O2           C12   1.279       .  A
O3           Cu9   2.022       .  S
O3           C13   1.280       .  A
O4           Cu9   2.021       .  S
O4           C14   1.280       .  A
O5          Cu10   2.000       .  S
O5           C14   1.277       .  A
O6          Cu10   2.000       .  S
O6           C13   1.277       .  A
O7          Cu10   2.010       .  S
O7           C12   1.279       .  A
O8          Cu10   2.010       .  S
O8           C11   1.279       .  A
Cu9         Cu10   2.370       .  S
C11        C3976   1.481       .  S
C12        C3943   1.484       .  S
C13        C3987   1.482       .  S
C14        C3932   1.482       .  S
O15         Cu23   2.020       .  S
O15          C25   1.279       .  A
O16         Cu23   2.022       .  S
O16          C26   1.280       .  A
O17         Cu23   2.014       .  S
O17          C27   1.279       .  A
O18         Cu23   2.016       .  S
O18          C28   1.279       .  A
O19         Cu24   1.994       .  S
O19          C28   1.277       .  A
O20         Cu24   1.997       .  S
O20          C27   1.277       .  A
O21         Cu24   2.004       .  S
O21          C26   1.278       .  A
O22         Cu24   2.004       .  S
O22          C25   1.278       .  A
Cu23        Cu24   2.370       .  S
C25        C3899   1.484       .  S
C26        C3833   1.483       .  S
C27        C3866   1.479       .  S
C28        C3877   1.479       .  S
O29         Cu37   2.016       .  S
O29          C39   1.279       .  A
O30         Cu37   2.014       .  S
O30          C40   1.279       .  A
O31         Cu37   2.018       .  S
O31          C41   1.279       .  A
O32         Cu37   2.021       .  S
O32          C42   1.280       .  A
O33         Cu38   2.001       .  S
O33          C42   1.278       .  A
O34         Cu38   2.000       .  S
O34          C41   1.277       .  A
O35         Cu38   2.005       .  S
O35          C40   1.278       .  A
O36         Cu38   2.000       .  S
O36          C39   1.278       .  A
Cu37        Cu38   2.370       .  S
C39        C3789   1.481       .  S
C40        C3767   1.482       .  S
C41        C3811   1.481       .  S
C42        C3745   1.482       .  S
O43         Cu51   2.005       .  S
O43          C53   1.278       .  A
O44         Cu51   2.006       .  S
O44          C54   1.279       .  A
O45         Cu51   2.001       .  S
O45          C55   1.277       .  A
O46         Cu51   2.001       .  S
O46          C56   1.277       .  A
O47         Cu52   2.019       .  S
O47          C56   1.280       .  A
O48         Cu52   2.020       .  S
O48          C55   1.279       .  A
O49         Cu52   2.010       .  S
O49          C54   1.278       .  A
O50         Cu52   2.012       .  S
O50          C53   1.279       .  A
Cu51        Cu52   2.370       .  S
C53        C3679   1.481       .  S
C54        C3701   1.481       .  S
C55        C3723   1.481       .  S
C56        C3657   1.482       .  S
O57         Cu65   2.023       .  S
O57          C67   1.280       .  A
O58         Cu65   2.024       .  S
O58          C68   1.280       .  A
O59         Cu65   2.023       .  S
O59          C69   1.280       .  A
O60         Cu65   2.018       .  S
O60          C70   1.279       .  A
O61         Cu66   2.002       .  S
O61          C70   1.278       .  A
O62         Cu66   2.001       .  S
O62          C69   1.278       .  A
O63         Cu66   2.001       .  S
O63          C68   1.278       .  A
O64         Cu66   2.003       .  S
O64          C67   1.278       .  A
Cu65        Cu66   2.369       .  S
C67        C3591   1.484       .  S
C68        C3613   1.482       .  S
C69        C3635   1.484       .  S
C70        C3580   1.482       .  S
O71         Cu79   2.008       .  S
O71          C81   1.278       .  A
O72         Cu79   2.010       .  S
O72          C82   1.278       .  A
O73         Cu79   2.019       .  S
O73          C83   1.279       .  A
O74         Cu79   2.013       .  S
O74          C84   1.279       .  A
O75         Cu80   1.997       .  S
O75          C84   1.277       .  A
O76         Cu80   1.997       .  S
O76          C83   1.277       .  A
O77         Cu80   2.001       .  S
O77          C82   1.278       .  A
O78         Cu80   2.001       .  S
O78          C81   1.278       .  A
Cu79        Cu80   2.371       .  S
C81        C3525   1.479       .  S
C82        C3503   1.478       .  S
C83        C3481   1.481       .  S
C84        C3547   1.479       .  S
O85         Cu93   2.000   1_455  S
O85          C95   1.277       .  A
O86         Cu93   2.001   1_556  S
O86          C96   1.277       .  A
O87         Cu93   2.005   1_456  S
O87          C97   1.278       .  A
O88         Cu93   2.009       .  S
O88          C98   1.279       .  A
O89         Cu94   2.015       .  S
O89          C98   1.279       .  A
O90         Cu94   2.015   1_456  S
O90          C97   1.279       .  A
O91         Cu94   2.027   1_556  S
O91          C96   1.280       .  A
O92         Cu94   2.026   1_455  S
O92          C95   1.280       .  A
Cu93        Cu94   2.370       .  S
C95        C3470   1.483       .  S
C96        C3393   1.486       .  S
C97        C3437   1.482       .  S
C98        C3415   1.483       .  S
O99        Cu107   1.993       .  S
O99         C109   1.277       .  A
O100       Cu107   1.994   1_554  S
O100        C110   1.277       .  A
O101       Cu107   2.003   1_554  S
O101        C111   1.278       .  A
O102       Cu107   2.002       .  S
O102        C112   1.278       .  A
O103       Cu108   2.016       .  S
O103        C112   1.279       .  A
O104       Cu108   2.018   1_554  S
O104        C111   1.279       .  A
O105       Cu108   2.019   1_554  S
O105        C110   1.280       .  A
O106       Cu108   2.020       .  S
O106        C109   1.279       .  A
Cu107      Cu108   2.370       .  S
C109       C3338   1.480       .  S
C110       C3349   1.480       .  S
C111       C3371   1.483       .  S
C112       C3316   1.481       .  S
O113       Cu121   1.998   1_456  S
O113        C123   1.277       .  A
O114       Cu121   1.998       .  S
O114        C124   1.277       .  A
O115       Cu121   1.999   1_455  S
O115        C125   1.277       .  A
O116       Cu121   1.998   1_556  S
O116        C126   1.277       .  A
O117       Cu122   2.020   1_556  S
O117        C126   1.279       .  A
O118       Cu122   2.020   1_455  S
O118        C125   1.280       .  A
O119       Cu122   2.022       .  S
O119        C124   1.279       .  A
O120       Cu122   2.020   1_456  S
O120        C123   1.280       .  A
Cu121      Cu122   2.370       .  S
C123       C3250   1.481       .  S
C124       C3261   1.481       .  S
C125       C3294   1.483       .  S
C126       C3217   1.481       .  S
O127       Cu135   2.016   1_554  S
O127        C137   1.279       .  A
O128       Cu135   2.014       .  S
O128        C138   1.279       .  A
O129       Cu135   2.015   1_554  S
O129        C139   1.279       .  A
O130       Cu135   2.012       .  S
O130        C140   1.278       .  A
O131       Cu136   2.005       .  S
O131        C140   1.278       .  A
O132       Cu136   2.005   1_554  S
O132        C139   1.278       .  A
O133       Cu136   2.000       .  S
O133        C138   1.277       .  A
O134       Cu136   2.001   1_554  S
O134        C137   1.277       .  A
Cu135      Cu136   2.370       .  S
C137       C3195   1.481       .  S
C138       C3129   1.480       .  S
C139       C3162   1.482       .  S
C140       C3173   1.481       .  S
O141       Cu149   2.002       .  S
O141        C151   1.278       .  A
O142       Cu149   2.001   1_455  S
O142        C152   1.278       .  A
O143       Cu149   1.999   1_455  S
O143        C153   1.278       .  A
O144       Cu149   1.999       .  S
O144        C154   1.277       .  A
O145       Cu150   2.010       .  S
O145        C154   1.279       .  A
O146       Cu150   2.011   1_455  S
O146        C153   1.278       .  A
O147       Cu150   2.019   1_455  S
O147        C152   1.279       .  A
O148       Cu150   2.016       .  S
O148        C151   1.279       .  A
Cu149      Cu150   2.371       .  S
C151       C3041   1.482       .  S
C152       C3118   1.482       .  S
C153       C3085   1.479       .  S
C154       C3063   1.478       .  S
O155       Cu163   2.016   1_655  S
O155        C165   1.279       .  A
O156       Cu163   2.016       .  S
O156        C166   1.279       .  A
O157       Cu163   2.014   1_655  S
O157        C167   1.279       .  A
O158       Cu163   2.015       .  S
O158        C168   1.279       .  A
O159       Cu164   2.001       .  S
O159        C168   1.278       .  A
O160       Cu164   2.000   1_655  S
O160        C167   1.278       .  A
O161       Cu164   2.002       .  S
O161        C166   1.278       .  A
O162       Cu164   2.002   1_655  S
O162        C165   1.278       .  A
Cu163      Cu164   2.371       .  S
C165       C2997   1.480       .  S
C166       C2975   1.481       .  S
C167       C2953   1.480       .  S
C168       C3019   1.481       .  S
N169        N170   1.320       .  A
N169        C173   1.346       .  A
N169       Cu177   2.073       .  S
N170        C171   1.342       .  A
N170       Cu176   2.063       .  S
C171        C172   1.385       .  A
C171        H174   1.081       .  S
C172       C2931   1.482       .  S
C172        C173   1.388       .  A
C173        H175   1.082       .  S
Cu176       N179   2.063       .  S
Cu177       N187   2.074       .  S
Cu178       N180   2.074       .  S
Cu178       N186   2.075       .  S
N179        N180   1.320       .  A
N179        C183   1.340       .  A
N180        C181   1.347       .  A
C181        C182   1.390       .  A
C181        H184   1.081       .  S
C182       C3822   1.485       .  S
C182        C183   1.386       .  A
C183        H185   1.081       .  S
N186        N187   1.322       .  A
N186        C190   1.344       .  A
N187        C188   1.343       .  A
C188        C189   1.387       .  A
C188        H191   1.081       .  S
C189       C2909   1.485       .  S
C189        C190   1.388       .  A
C190        H192   1.081       .  S
N193        N194   1.320       .  A
N193        C197   1.345       .  A
N193       Cu201   2.069       .  S
N194        C195   1.344   1_545  A
N194       Cu200   2.072       .  S
C195        C196   1.388       .  A
C195        H198   1.081       .  S
C196       C2942   1.484       .  S
C196        C197   1.387   1_565  A
C197        H199   1.081       .  S
Cu200       N203   2.072       .  S
Cu201       N211   2.069       .  S
Cu202       N204   2.074       .  S
Cu202       N210   2.074       .  S
N203        N204   1.321       .  A
N203        C207   1.342       .  A
N204        C205   1.346       .  A
C205        C206   1.389       .  A
C205        H208   1.081       .  S
C206       C3998   1.487       .  S
C206        C207   1.388       .  A
C207        H209   1.081       .  S
N210        N211   1.322       .  A
N210        C214   1.344       .  A
N211        C212   1.343       .  A
C212        C213   1.386       .  A
C212        H215   1.081       .  S
C213       C2898   1.483       .  S
C213        C214   1.388       .  A
C214        H216   1.081       .  S
N217        N218   1.319       .  A
N217        C221   1.345       .  A
N217       Cu225   2.067       .  S
N218        C219   1.342       .  A
N218       Cu224   2.068       .  S
C219        C220   1.389       .  A
C219        H222   1.081       .  S
C220       C2865   1.486       .  S
C220        C221   1.389       .  A
C221        H223   1.081       .  S
Cu224       N227   2.068       .  S
Cu225       N235   2.068       .  S
Cu226       N228   2.081       .  S
Cu226       N234   2.081       .  S
N227        N228   1.321       .  A
N227        C231   1.342       .  A
N228        C229   1.347       .  A
C229        C230   1.390       .  A
C229        H232   1.081       .  S
C230       C3734   1.488       .  S
C230        C231   1.387       .  A
C231        H233   1.081       .  S
N234        N235   1.322       .  A
N234        C238   1.346       .  A
N235        C236   1.342       .  A
C236        C237   1.384       .  A
C236        H239   1.081       .  S
C237       C2854   1.482       .  S
C237        C238   1.388       .  A
C238        H240   1.081       .  S
N241        N242   1.321       .  A
N241        C245   1.345       .  A
N241       Cu249   2.070       .  S
N242        C243   1.344       .  A
N242       Cu248   2.073       .  S
C243        C244   1.387       .  A
C243        H246   1.081       .  S
C244       C2876   1.483       .  S
C244        C245   1.387       .  A
C245        H247   1.081       .  S
Cu248       N251   2.074       .  S
Cu249       N259   2.071       .  S
Cu250       N252   2.076       .  S
Cu250       N258   2.076       .  S
N251        N252   1.321       .  A
N251        C255   1.343       .  A
N252        C253   1.347       .  A
C253        C254   1.389       .  A
C253        H256   1.081       .  S
C254       C3910   1.487       .  S
C254        C255   1.388       .  A
C255        H257   1.081       .  S
N258        N259   1.322       .  A
N258        C262   1.344       .  A
N259        C260   1.344       .  A
C260        C261   1.386       .  A
C260        H263   1.081       .  S
C261       C2821   1.482       .  S
C261        C262   1.387       .  A
C262        H264   1.081       .  S
N265        N266   1.319       .  A
N265        C269   1.346       .  A
N265       Cu273   2.076       .  S
N266        C267   1.342       .  A
N266       Cu272   2.060       .  S
C267        C268   1.386       .  A
C267        H270   1.081       .  S
C268       C2799   1.484       .  S
C268        C269   1.389       .  A
C269        H271   1.081       .  S
Cu272       N275   2.060       .  S
Cu273       N283   2.077       .  S
Cu274       N276   2.079       .  S
Cu274       N282   2.080       .  S
N275        N276   1.321       .  A
N275        C279   1.340       .  A
N276        C277   1.347       .  A
C277        C278   1.388       .  A
C277        H280   1.082       .  S
C278       C3558   1.480       .  S
C278        C279   1.383       .  A
C279        H281   1.082       .  S
N282        N283   1.322       .  A
N282        C286   1.345       .  A
N283        C284   1.344       .  A
C284        C285   1.388       .  A
C284        H287   1.081       .  S
C285       C2777   1.488       .  S
C285        C286   1.389       .  A
C286        H288   1.081       .  S
N289        N290   1.320       .  A
N289        C293   1.345       .  A
N289       Cu297   2.069       .  S
N290        C291   1.343       .  A
N290       Cu296   2.069       .  S
C291        C292   1.389       .  A
C291        H294   1.081       .  S
C292       C2810   1.486       .  S
C292        C293   1.389       .  A
C293        H295   1.081       .  S
Cu296       N299   2.070       .  S
Cu297       N307   2.070       .  S
Cu298       N300   2.084       .  S
Cu298       N306   2.084       .  S
N299        N300   1.322       .  A
N299        C303   1.343       .  A
N300        C301   1.348       .  A
C301        C302   1.388       .  A
C301        H304   1.082       .  S
C302       C3646   1.483       .  S
C302        C303   1.385       .  A
C303        H305   1.082       .  S
N306        N307   1.322       .  A
N306        C310   1.346       .  A
N307        C308   1.343       .  A
C308        C309   1.387       .  A
C308        H311   1.081       .  S
C309       C2755   1.488       .  S
C309        C310   1.390       .  A
C310        H312   1.081       .  S
N313        N314   1.319       .  A
N313        C317   1.345       .  A
N313       Cu321   2.073       .  S
N314        C315   1.343       .  A
N314       Cu320   2.065       .  S
C315        C316   1.388       .  A
C315        H318   1.081       .  S
C316       C2733   1.487       .  S
C316        C317   1.390       .  A
C317        H319   1.081       .  S
Cu320       N323   2.065       .  S
Cu321       N331   2.074       .  S
Cu322       N324   2.083       .  S
Cu322       N330   2.084       .  S
N323        N324   1.321       .  A
N323        C327   1.342       .  A
N324        C325   1.347       .  A
C325        C326   1.390       .  A
C325        H328   1.081       .  S
C326       C3712   1.485       .  S
C326        C327   1.386       .  A
C327        H329   1.081       .  S
N330        N331   1.323       .  A
N330        C334   1.346       .  A
N331        C332   1.344       .  A
C332        C333   1.385       .  A
C332        H335   1.082       .  S
C333       C2711   1.484       .  S
C333        C334   1.388       .  A
C334        H336   1.081       .  S
N337        N338   1.320       .  A
N337        C341   1.346       .  A
N337       Cu345   2.073       .  S
N338        C339   1.341       .  A
N338       Cu344   2.064       .  S
C339        C340   1.386       .  A
C339        H342   1.081       .  S
C340       C2744   1.484       .  S
C340        C341   1.389       .  A
C341        H343   1.081       .  S
Cu344       N347   2.064       .  S
Cu345       N355   2.073       .  S
Cu346       N348   2.072       .  S
Cu346       N354   2.073       .  S
N347        N348   1.320       .  A
N347        C351   1.342       .  A
N348        C349   1.345       .  A
C349        C350   1.388       .  A
C349        H352   1.081       .  S
C350       C3855   1.481       .  S
C350        C351   1.386       .  A
C351        H353   1.081       .  S
N354        N355   1.322       .  A
N354        C358   1.344       .  A
N355        C356   1.343       .  A
C356        C357   1.388       .  A
C356        H359   1.081       .  S
C357       C2700   1.486       .  S
C357        C358   1.388       .  A
C358        H360   1.081       .  S
N361        N362   1.320       .  A
N361        C365   1.346       .  A
N361       Cu369   2.071       .  S
N362        C363   1.342       .  A
N362       Cu368   2.066       .  S
C363        C364   1.386       .  A
C363        H366   1.081       .  S
C364       C2667   1.483       .  S
C364        C365   1.388       .  A
C365        H367   1.081       .  S
Cu368       N371   2.066       .  S
Cu369       N379   2.072       .  S
Cu370       N372   2.085       .  S
Cu370       N378   2.086       .  S
N371        N372   1.321       .  A
N371        C375   1.342       .  A
N372        C373   1.348       .  A
C373        C374   1.391       .  A
C373        H376   1.081       .  S
C374       C3778   1.487       .  S
C374        C375   1.386       .  A
C375        H377   1.081       .  S
N378        N379   1.322       .  A
N378        C382   1.346       .  A
N379        C380   1.343       .  A
C380        C381   1.387       .  A
C380        H383   1.081       .  S
C381       C2645   1.489       .  S
C381        C382   1.390       .  A
C382        H384   1.081       .  S
N385        N386   1.320       .  A
N385        C389   1.344       .  A
N385       Cu393   2.066       .  S
N386        C387   1.343       .  A
N386       Cu392   2.067       .  S
C387        C388   1.387   1_545  A
C387        H390   1.082   1_545  S
C388       C2678   1.480       .  S
C388        C389   1.386   1_565  A
C389        H391   1.081       .  S
Cu392       N395   2.067       .  S
Cu393       N403   2.066       .  S
Cu394       N396   2.076       .  S
Cu394       N402   2.076       .  S
N395        N396   1.321       .  A
N395        C399   1.341       .  A
N396        C397   1.347       .  A
C397        C398   1.388       .  A
C397        H400   1.082       .  S
C398       C3965   1.482       .  S
C398        C399   1.385       .  A
C399        H401   1.081       .  S
N402        N403   1.321       .  A
N402        C406   1.344       .  A
N403        C404   1.343       .  A
C404        C405   1.386       .  A
C404        H407   1.081       .  S
C405       C2623   1.485       .  S
C405        C406   1.389       .  A
C406        H408   1.081       .  S
N409        N410   1.320       .  A
N409        C413   1.346       .  A
N409       Cu417   2.070       .  S
N410        C411   1.343       .  A
N410       Cu416   2.071       .  S
C411        C412   1.389       .  A
C411        H414   1.081       .  S
C412       C2601   1.487       .  S
C412        C413   1.389       .  A
C413        H415   1.081       .  S
Cu416       N419   2.071       .  S
Cu417       N427   2.070       .  S
Cu418       N420   2.077       .  S
Cu418       N426   2.078       .  S
N419        N420   1.321       .  A
N419        C423   1.342       .  A
N420        C421   1.347       .  A
C421        C422   1.389       .  A
C421        H424   1.081       .  S
C422       C3690   1.484       .  S
C422        C423   1.386       .  A
C423        H425   1.081       .  S
N426        N427   1.322       .  A
N426        C430   1.345       .  A
N427        C428   1.343       .  A
C428        C429   1.385       .  A
C428        H431   1.081       .  S
C429       C2579   1.483       .  S
C429        C430   1.388       .  A
C430        H432   1.081       .  S
N433        N434   1.319       .  A
N433        C437   1.345       .  A
N433       Cu441   2.070       .  S
N434        C435   1.343       .  A
N434       Cu440   2.066       .  S
C435        C436   1.389       .  A
C435        H438   1.081       .  S
C436       C2612   1.487       .  S
C436        C437   1.389       .  A
C437        H439   1.081       .  S
Cu440       N443   2.066       .  S
Cu441       N451   2.071       .  S
Cu442       N444   2.080       .  S
Cu442       N450   2.080       .  S
N443        N444   1.321       .  A
N443        C447   1.341       .  A
N444        C445   1.346       .  A
C445        C446   1.390       .  A
C445        H448   1.081       .  S
C446       C3888   1.487       .  S
C446        C447   1.387       .  A
C447        H449   1.080       .  S
N450        N451   1.322       .  A
N450        C454   1.346       .  A
N451        C452   1.342       .  A
C452        C453   1.387       .  A
C452        H455   1.081       .  S
C453       C2557   1.487       .  S
C453        C454   1.390       .  A
C454        H456   1.081       .  S
N457        N458   1.319       .  A
N457        C461   1.345       .  A
N457       Cu465   2.073       .  S
N458        C459   1.342       .  A
N458       Cu464   2.061       .  S
C459        C460   1.387       .  A
C459        H462   1.081       .  S
C460       C2535   1.486       .  S
C460        C461   1.390       .  A
C461        H463   1.081       .  S
Cu464       N467   2.062       .  S
Cu465       N475   2.074       .  S
Cu466       N468   2.080       .  S
Cu466       N474   2.081       .  S
N467        N468   1.320       .  A
N467        C471   1.341       .  A
N468        C469   1.347       .  A
C469        C470   1.390       .  A
C469        H472   1.081       .  S
C470       C3800   1.485       .  S
C470        C471   1.386       .  A
C471        H473   1.081       .  S
N474        N475   1.322       .  A
N474        C478   1.345       .  A
N475        C476   1.344       .  A
C476        C477   1.388       .  A
C476        H479   1.081       .  S
C477       C2513   1.489       .  S
C477        C478   1.390       .  A
C478        H480   1.081       .  S
N481        N482   1.320       .  A
N481        C485   1.346       .  A
N481       Cu489   2.074       .  S
N482        C483   1.342       .  A
N482       Cu488   2.065       .  S
C483        C484   1.387   1_545  A
C483        H486   1.081   1_545  S
C484       C2546   1.486       .  S
C484        C485   1.390   1_565  A
C485        H487   1.081       .  S
Cu488       N491   2.066       .  S
Cu489       N499   2.075       .  S
Cu490       N492   2.085       .  S
Cu490       N498   2.086       .  S
N491        N492   1.320       .  A
N491        C495   1.342       .  A
N492        C493   1.349       .  A
C493        C494   1.391       .  A
C493        H496   1.081       .  S
C494       C3954   1.487       .  S
C494        C495   1.386       .  A
C495        H497   1.081       .  S
N498        N499   1.323       .  A
N498        C502   1.345       .  A
N499        C500   1.345       .  A
C500        C501   1.387       .  A
C500        H503   1.081       .  S
C501       C2491   1.487       .  S
C501        C502   1.388       .  A
C502        H504   1.081       .  S
N505        N506   1.319       .  A
N505        C509   1.345       .  A
N505       Cu513   2.068       .  S
N506        C507   1.342       .  A
N506       Cu512   2.065       .  S
C507        C508   1.388       .  A
C507        H510   1.081       .  S
C508       C2469   1.485       .  S
C508        C509   1.389       .  A
C509        H511   1.081       .  S
Cu512       N515   2.065       .  S
Cu513       N523   2.069       .  S
Cu514       N516   2.075       .  S
Cu514       N522   2.076       .  S
N515        N516   1.320       .  A
N515        C519   1.341       .  A
N516        C517   1.346       .  A
C517        C518   1.389       .  A
C517        H520   1.081       .  S
C518       C3514   1.485       .  S
C518        C519   1.387       .  A
C519        H521   1.081       .  S
N522        N523   1.321       .  A
N522        C526   1.345       .  A
N523        C524   1.342       .  A
C524        C525   1.387       .  A
C524        H527   1.081       .  S
C525       C2447   1.485       .  S
C525        C526   1.389       .  A
C526        H528   1.081       .  S
N529        N530   1.321       .  A
N529        C533   1.346       .  A
N529       Cu537   2.074       .  S
N530        C531   1.343       .  A
N530       Cu536   2.068       .  S
C531        C532   1.386       .  A
C531        H534   1.081       .  S
C532       C2480   1.482       .  S
C532        C533   1.387       .  A
C533        H535   1.082       .  S
Cu536       N539   2.069       .  S
Cu537       N547   2.075       .  S
Cu538       N540   2.081       .  S
Cu538       N546   2.081       .  S
N539        N540   1.320       .  A
N539        C543   1.343       .  A
N540        C541   1.347       .  A
C541        C542   1.391       .  A
C541        H544   1.081       .  S
C542       C3624   1.489       .  S
C542        C543   1.388       .  A
C543        H545   1.081       .  S
N546        N547   1.322       .  A
N546        C550   1.345       .  A
N547        C548   1.344       .  A
C548        C549   1.387       .  A
C548        H551   1.081       .  S
C549       C2425   1.487       .  S
C549        C550   1.389       .  A
C550        H552   1.081       .  S
N553        N554   1.320       .  A
N553        C557   1.347       .  A
N553       Cu561   2.079       .  S
N554        C555   1.341       .  A
N554       Cu560   2.059       .  S
C555        C556   1.384       .  A
C555        H558   1.081       .  S
C556       C2403   1.482       .  S
C556        C557   1.389       .  A
C557        H559   1.082       .  S
Cu560       N563   2.059       .  S
Cu561       N571   2.080       .  S
Cu562       N564   2.082       .  S
Cu562       N570   2.083       .  S
N563        N564   1.320       .  A
N563        C567   1.341       .  A
N564        C565   1.347       .  A
C565        C566   1.390       .  A
C565        H568   1.081       .  S
C566       C3536   1.484       .  S
C566        C567   1.385       .  A
C567        H569   1.081       .  S
N570        N571   1.323       .  A
N570        C574   1.346       .  A
N571        C572   1.345       .  A
C572        C573   1.388       .  A
C572        H575   1.081       .  S
C573       C2381   1.489       .  S
C573        C574   1.389       .  A
C574        H576   1.081       .  S
N577        N578   1.320       .  A
N577        C581   1.345       .  A
N577       Cu585   2.071       .  S
N578        C579   1.344       .  A
N578       Cu584   2.074       .  S
C579        C580   1.389       .  A
C579        H582   1.081       .  S
C580       C2414   1.488       .  S
C580        C581   1.389       .  A
C581        H583   1.081       .  S
Cu584       N587   2.074       .  S
Cu585       N595   2.071       .  S
Cu586       N588   2.078       .  S
Cu586       N594   2.078       .  S
N587        N588   1.321       .  A
N587        C591   1.343       .  A
N588        C589   1.347       .  A
C589        C590   1.389       .  A
C589        H592   1.081       .  S
C590       C3602   1.486       .  S
C590        C591   1.387       .  A
C591        H593   1.081       .  S
N594        N595   1.322       .  A
N594        C598   1.345       .  A
N595        C596   1.343       .  A
C596        C597   1.386       .  A
C596        H599   1.081       .  S
C597       C2370   1.485       .  S
C597        C598   1.388       .  A
C598        H600   1.081       .  S
N601        N602   1.320       .  A
N601        C605   1.345       .  A
N601       Cu609   2.072       .  S
N602        C603   1.343       .  A
N602       Cu608   2.070       .  S
C603        C604   1.389       .  A
C603        H606   1.081       .  S
C604       C2337   1.487       .  S
C604        C605   1.389       .  A
C605        H607   1.081       .  S
Cu608       N611   2.070       .  S
Cu609       N619   2.073       .  S
Cu610       N612   2.087       .  S
Cu610       N618   2.088       .  S
N611        N612   1.322       .  A
N611        C615   1.342       .  A
N612        C613   1.349       .  A
C613        C614   1.390       .  A
C613        H616   1.082       .  S
C614       C3756   1.485       .  S
C614        C615   1.385       .  A
C615        H617   1.082       .  S
N618        N619   1.322       .  A
N618        C622   1.346       .  A
N619        C620   1.344       .  A
C620        C621   1.387       .  A
C620        H623   1.081       .  S
C621       C2315   1.489       .  S
C621        C622   1.390       .  A
C622        H624   1.081       .  S
N625        N626   1.320       .  A
N625        C629   1.346       .  A
N625       Cu633   2.077       .  S
N626        C627   1.343       .  A
N626       Cu632   2.070       .  S
C627        C628   1.388   1_545  A
C627        H630   1.081   1_545  S
C628       C2348   1.488       .  S
C628        C629   1.390   1_565  A
C629        H631   1.081       .  S
Cu632       N635   2.070       .  S
Cu633       N643   2.078       .  S
Cu634       N636   2.079       .  S
Cu634       N642   2.080       .  S
N635        N636   1.321       .  A
N635        C639   1.342       .  A
N636        C637   1.347       .  A
C637        C638   1.390       .  A
C637        H640   1.081       .  S
C638       C3921   1.488       .  S
C638        C639   1.387       .  A
C639        H641   1.081       .  S
N642        N643   1.322       .  A
N642        C646   1.345       .  A
N643        C644   1.345       .  A
C644        C645   1.388       .  A
C644        H647   1.081       .  S
C645       C2304   1.488       .  S
C645        C646   1.388       .  A
C646        H648   1.081       .  S
N649        N650   1.320       .  A
N649        C653   1.344       .  A
N649       Cu657   2.067       .  S
N650        C651   1.342       .  A
N650       Cu656   2.062       .  S
C651        C652   1.385       .  A
C651        H654   1.081       .  S
C652       C2271   1.480       .  S
C652        C653   1.387       .  A
C653        H655   1.081       .  S
Cu656       N659   2.062       .  S
Cu657       N667   2.069       .  S
Cu658       N660   2.078       .  S
Cu658       N666   2.079       .  S
N659        N660   1.320       .  A
N659        C663   1.341       .  A
N660        C661   1.347       .  A
C661        C662   1.391       .  A
C661        H664   1.081       .  S
C662       C3668   1.487       .  S
C662        C663   1.387       .  A
C663        H665   1.080       .  S
N666        N667   1.322       .  A
N666        C670   1.344       .  A
N667        C668   1.343       .  A
C668        C669   1.387       .  A
C668        H671   1.081       .  S
C669       C2260   1.486       .  S
C669        C670   1.389       .  A
C670        H672   1.081       .  S
N673        N674   1.320       .  A
N673        C677   1.344       .  A
N673       Cu681   2.065       .  S
N674        C675   1.342       .  A
N674       Cu680   2.067       .  S
C675        C676   1.387       .  A
C675        H678   1.081       .  S
C676       C2282   1.482       .  S
C676        C677   1.387       .  A
C677        H679   1.081       .  S
Cu680       N683   2.068       .  S
Cu681       N691   2.066       .  S
Cu682       N684   2.078       .  S
Cu682       N690   2.079       .  S
N683        N684   1.321       .  A
N683        C687   1.342       .  A
N684        C685   1.347       .  A
C685        C686   1.390       .  A
C685        H688   1.081       .  S
C686       C3844   1.486       .  S
C686        C687   1.387       .  A
C687        H689   1.081       .  S
N690        N691   1.322       .  A
N690        C694   1.345       .  A
N691        C692   1.343       .  A
C692        C693   1.385       .  A
C692        H695   1.081       .  S
C693       C2238   1.482       .  S
C693        C694   1.387       .  A
C694        H696   1.081       .  S
N697        N698   1.320       .  A
N697        C701   1.347       .  A
N697       Cu705   2.078       .  S
N698        C699   1.341       .  A
N698       Cu704   2.063       .  S
C699        C700   1.386       .  A
C699        H702   1.081       .  S
C700       C2205   1.485       .  S
C700        C701   1.390       .  A
C701        H703   1.081       .  S
Cu704       N707   2.063       .  S
Cu705       N715   2.079       .  S
Cu706       N708   2.076       .  S
Cu706       N714   2.077       .  S
N707        N708   1.320       .  A
N707        C711   1.342       .  A
N708        C709   1.346       .  A
C709        C710   1.389       .  A
C709        H712   1.081       .  S
C710       C3492   1.484       .  S
C710        C711   1.386       .  A
C711        H713   1.081       .  S
N714        N715   1.323       .  A
N714        C718   1.345       .  A
N715        C716   1.345       .  A
C716        C717   1.387       .  A
C716        H719   1.081       .  S
C717       C2183   1.484       .  S
C717        C718   1.387       .  A
C718        H720   1.081       .  S
N721        N722   1.319       .  A
N721        C725   1.344       .  A
N721       Cu729   2.065       .  S
N722        C723   1.343       .  A
N722       Cu728   2.069       .  S
C723        C724   1.389       .  A
C723        H726   1.081       .  S
C724       C2216   1.486       .  S
C724        C725   1.388       .  A
C725        H727   1.081       .  S
Cu728       N731   2.069       .  S
Cu729       N739   2.066       .  S
Cu730       N732   2.079       .  S
Cu730       N738   2.080       .  S
N731        N732   1.322       .  A
N731        C735   1.342       .  A
N732        C733   1.347       .  A
C733        C734   1.388       .  A
C733        H736   1.082       .  S
C734       C3569   1.483       .  S
C734        C735   1.385       .  A
C735        H737   1.081       .  S
N738        N739   1.321       .  A
N738        C742   1.345       .  A
N739        C740   1.342       .  A
C740        C741   1.386       .  A
C740        H743   1.081       .  S
C741       C2161   1.486       .  S
C741        C742   1.390       .  A
C742        H744   1.081       .  S
N745        N746   1.320       .  A
N745        C749   1.346       .  A
N745       Cu753   2.074       .  S
N746        C747   1.343       .  A
N746       Cu752   2.071       .  S
C747        C748   1.388       .  A
C747        H750   1.081       .  S
C748       C2139   1.487       .  S
C748        C749   1.389       .  A
C749        H751   1.081       .  S
Cu752       N755   2.072       .  S
Cu753       N763   2.075       .  S
Cu754       N756   2.080       .  S
Cu754       N762   2.081       .  S
N755        N756   1.321       .  A
N755        C759   1.343       .  A
N756        C757   1.347       .  A
C757        C758   1.391       .  A
C757        H760   1.081       .  S
C758       C3283   1.489       .  S
C758        C759   1.388       .  A
C759        H761   1.081       .  S
N762        N763   1.322       .  A
N762        C766   1.345       .  A
N763        C764   1.344       .  A
C764        C765   1.388       .  A
C764        H767   1.081       .  S
C765       C2128   1.488       .  S
C765        C766   1.389       .  A
C766        H768   1.081       .  S
N769        N770   1.319       .  A
N769        C773   1.346       .  A
N769       Cu777   2.072       .  S
N770        C771   1.342       .  A
N770       Cu776   2.066       .  S
C771        C772   1.388       .  A
C771        H774   1.081       .  S
C772       C2150   1.486       .  S
C772        C773   1.390       .  A
C773        H775   1.081       .  S
Cu776       N779   2.066       .  S
Cu777       N787   2.072       .  S
Cu778       N780   2.083       .  S
Cu778       N786   2.083       .  S
N779        N780   1.320       .  A
N779        C783   1.341       .  A
N780        C781   1.348       .  A
C781        C782   1.392       .  A
C781        H784   1.081       .  S
C782       C3459   1.489       .  S
C782        C783   1.387       .  A
C783        H785   1.080       .  S
N786        N787   1.323       .  A
N786        C790   1.346       .  A
N787        C788   1.343       .  A
C788        C789   1.384       .  A
C788        H791   1.081       .  S
C789       C2106   1.482       .  S
C789        C790   1.388       .  A
C790        H792   1.081       .  S
N793        N794   1.319       .  A
N793        C797   1.346       .  A
N793       Cu801   2.071       .  S
N794        C795   1.342       .  A
N794       Cu800   2.064       .  S
C795        C796   1.388       .  A
C795        H798   1.081       .  S
C796       C2084   1.486       .  S
C796        C797   1.389       .  A
C797        H799   1.081       .  S
Cu800       N803   2.065       .  S
Cu801       N811   2.072       .  S
Cu802       N804   2.080       .  S
Cu802       N810   2.081       .  S
N803        N804   1.321       .  A
N803        C807   1.341       .  A
N804        C805   1.348       .  A
C805        C806   1.388       .  A
C805        H808   1.082       .  S
C806       C3206   1.480       .  S
C806        C807   1.383       .  A
C807        H809   1.082       .  S
N810        N811   1.322       .  A
N810        C814   1.345       .  A
N811        C812   1.342       .  A
C812        C813   1.387       .  A
C812        H815   1.081       .  S
C813       C2051   1.487       .  S
C813        C814   1.390       .  A
C814        H816   1.081       .  S
N817        N818   1.320       .  A
N817        C821   1.346       .  A
N817       Cu825   2.075       .  S
N818        C819   1.342       .  A
N818       Cu824   2.067       .  S
C819        C820   1.387       .  A
C819        H822   1.081       .  S
C820       C2073   1.485       .  S
C820        C821   1.389       .  A
C821        H823   1.081       .  S
Cu824       N827   2.067       .  S
Cu825       N835   2.076       .  S
Cu826       N828   2.081       .  S
Cu826       N834   2.082       .  S
N827        N828   1.321       .  A
N827        C831   1.342       .  A
N828        C829   1.347       .  A
C829        C830   1.389       .  A
C829        H832   1.082       .  S
C830       C3382   1.485       .  S
C830        C831   1.386       .  A
C831        H833   1.081       .  S
N834        N835   1.322       .  A
N834        C838   1.346       .  A
N835        C836   1.344       .  A
C836        C837   1.387       .  A
C836        H839   1.081       .  S
C837       C2029   1.488       .  S
C837        C838   1.389       .  A
C838        H840   1.081       .  S
N841        N842   1.320       .  A
N841        C845   1.343       .  A
N841       Cu849   2.064       .  S
N842        C843   1.342       .  A
N842       Cu848   2.065       .  S
C843        C844   1.387       .  A
C843        H846   1.081       .  S
C844       C2007   1.482       .  S
C844        C845   1.387       .  A
C845        H847   1.081       .  S
Cu848       N851   2.066       .  S
Cu849       N859   2.065       .  S
Cu850       N852   2.075       .  S
Cu850       N858   2.076       .  S
N851        N852   1.321       .  A
N851        C855   1.342       .  A
N852        C853   1.346       .  A
C853        C854   1.387       .  A
C853        H856   1.082       .  S
C854       C3184   1.482       .  S
C854        C855   1.386       .  A
C855        H857   1.081       .  S
N858        N859   1.321       .  A
N858        C862   1.344       .  A
N859        C860   1.343       .  A
C860        C861   1.387       .  A
C860        H863   1.081       .  S
C861       C1996   1.485       .  S
C861        C862   1.389       .  A
C862        H864   1.081       .  S
N865        N866   1.320       .  A
N865        C869   1.345       .  A
N865       Cu873   2.070       .  S
N866        C867   1.341       .  A
N866       Cu872   2.063       .  S
C867        C868   1.384       .  A
C867        H870   1.081       .  S
C868       C2018   1.478       .  S
C868        C869   1.387       .  A
C869        H871   1.082       .  S
Cu872       N875   2.063       .  S
Cu873       N883   2.071       .  S
Cu874       N876   2.075       .  S
Cu874       N882   2.075       .  S
N875        N876   1.320       .  A
N875        C879   1.342       .  A
N876        C877   1.345       .  A
C877        C878   1.388       .  A
C877        H880   1.081       .  S
C878       C3327   1.482       .  S
C878        C879   1.386       .  A
C879        H881   1.081       .  S
N882        N883   1.321       .  A
N882        C886   1.344       .  A
N883        C884   1.343       .  A
C884        C885   1.387       .  A
C884        H887   1.081       .  S
C885       C1963   1.486       .  S
C885        C886   1.388       .  A
C886        H888   1.081       .  S
N889        N890   1.319       .  A
N889        C893   1.346       .  A
N889       Cu897   2.070       .  S
N890        C891   1.341       .  A
N890       Cu896   2.064       .  S
C891        C892   1.387       .  A
C891        H894   1.081       .  S
C892       C1952   1.485       .  S
C892        C893   1.390       .  A
C893        H895   1.081       .  S
Cu896       N899   2.064       .  S
Cu897       N907   2.071       .  S
Cu898       N900   2.084       .  S
Cu898       N906   2.085       .  S
N899        N900   1.320       .  A
N899        C903   1.342       .  A
N900        C901   1.347       .  A
C901        C902   1.391       .  A
C901        H904   1.081       .  S
C902       C3151   1.488       .  S
C902        C903   1.387       .  A
C903        H905   1.081       .  S
N906        N907   1.322       .  A
N906        C910   1.346       .  A
N907        C908   1.343       .  A
C908        C909   1.386       .  A
C908        H911   1.081       .  S
C909       C1919   1.486       .  S
C909        C910   1.389       .  A
C910        H912   1.081       .  S
N913        N914   1.319       .  A
N913        C917   1.345       .  A
N913       Cu921   2.068       .  S
N914        C915   1.341       .  A
N914       Cu920   2.059       .  S
C915        C916   1.385       .  A
C915        H918   1.081       .  S
C916       C1941   1.479       .  S
C916        C917   1.387       .  A
C917        H919   1.082       .  S
Cu920       N923   2.059       .  S
Cu921       N931   2.069       .  S
Cu922       N924   2.078       .  S
Cu922       N930   2.078       .  S
N923        N924   1.321       .  A
N923        C927   1.341       .  A
N924        C925   1.346       .  A
C925        C926   1.389       .  A
C925        H928   1.082       .  S
C926       C3360   1.481       .  S
C926        C927   1.384       .  A
C927        H929   1.081       .  S
N930        N931   1.322       .  A
N930        C934   1.345       .  A
N931        C932   1.342       .  A
C932        C933   1.386       .  A
C932        H935   1.081       .  S
C933       C1897   1.484       .  S
C933        C934   1.388       .  A
C934        H936   1.081       .  S
N937        N938   1.320       .  A
N937        C941   1.345       .  A
N937       Cu945   2.068       .  S
N938        C939   1.342       .  A
N938       Cu944   2.070       .  S
C939        C940   1.388       .  A
C939        H942   1.081       .  S
C940       C1875   1.485       .  S
C940        C941   1.388       .  A
C941        H943   1.081       .  S
Cu944       N947   2.070       .  S
Cu945       N955   2.069       .  S
Cu946       N948   2.072       .  S
Cu946       N954   2.073       .  S
N947        N948   1.320       .  A
N947        C951   1.343       .  A
N948        C949   1.346       .  A
C949        C950   1.389       .  A
C949        H952   1.081       .  S
C950       C3272   1.486       .  S
C950        C951   1.388       .  A
C951        H953   1.081       .  S
N954        N955   1.321       .  A
N954        C958   1.343       .  A
N955        C956   1.343       .  A
C956        C957   1.387       .  A
C956        H959   1.081       .  S
C957       C1853   1.484       .  S
C957        C958   1.388       .  A
C958        H960   1.081       .  S
N961        N962   1.320       .  A
N961        C965   1.346       .  A
N961       Cu969   2.074       .  S
N962        C963   1.341       .  A
N962       Cu968   2.066       .  S
C963        C964   1.387       .  A
C963        H966   1.081       .  S
C964       C1886   1.486       .  S
C964        C965   1.390       .  A
C965        H967   1.081       .  S
Cu968       N971   2.066       .  S
Cu969       N979   2.075       .  S
Cu970       N972   2.074       .  S
Cu970       N978   2.074       .  S
N971        N972   1.320       .  A
N971        C975   1.342       .  A
N972        C973   1.347       .  A
C973        C974   1.389       .  A
C973        H976   1.081       .  S
C974       C3426   1.484       .  S
C974        C975   1.386       .  A
C975        H977   1.081       .  S
N978        N979   1.322       .  A
N978        C982   1.343       .  A
N979        C980   1.344       .  A
C980        C981   1.388       .  A
C980        H983   1.081       .  S
C981       C1842   1.485       .  S
C981        C982   1.387       .  A
C982        H984   1.081       .  S
N985        N986   1.320       .  A
N985        C989   1.345       .  A
N985       Cu993   2.070       .  S
N986        C987   1.343       .  A
N986       Cu992   2.067       .  S
C987        C988   1.388       .  A
C987        H990   1.081       .  S
C988       C1809   1.485       .  S
C988        C989   1.388       .  A
C989        H991   1.081       .  S
Cu992       N995   2.067       .  S
Cu993      N1003   2.071       .  S
Cu994       N996   2.086       .  S
Cu994      N1002   2.087       .  S
N995        N996   1.321       .  A
N995        C999   1.342       .  A
N996        C997   1.348       .  A
C997        C998   1.391       .  A
C997       H1000   1.081       .  S
C998       C3008   1.489       .  S
C998        C999   1.387       .  A
C999       H1001   1.081       .  S
N1002      N1003   1.322       .  A
N1002      C1006   1.346       .  A
N1003      C1004   1.344       .  A
C1004      C1005   1.386       .  A
C1004      H1007   1.081       .  S
C1005      C1798   1.487       .  S
C1005      C1006   1.390       .  A
C1006      H1008   1.081       .  S
N1009      N1010   1.319       .  A
N1009      C1013   1.346       .  A
N1009     Cu1017   2.072       .  S
N1010      C1011   1.340       .  A
N1010     Cu1016   2.057       .  S
C1011      C1012   1.386       .  A
C1011      H1014   1.081       .  S
C1012      C1820   1.484       .  S
C1012      C1013   1.390       .  A
C1013      H1015   1.081       .  S
Cu1016     N1019   2.057       .  S
Cu1017     N1027   2.073       .  S
Cu1018     N1020   2.073       .  S
Cu1018     N1026   2.074       .  S
N1019      N1020   1.320       .  A
N1019      C1023   1.340       .  A
N1020      C1021   1.347       .  A
C1021      C1022   1.387       .  A
C1021      H1024   1.082       .  S
C1022      C3074   1.476       .  S
C1022      C1023   1.382       .  A
C1023      H1025   1.082       .  S
N1026      N1027   1.322       .  A
N1026      C1030   1.344       .  A
N1027      C1028   1.343       .  A
C1028      C1029   1.387       .  A
C1028      H1031   1.081       .  S
C1029      C1765   1.485       .  S
C1029      C1030   1.388       .  A
C1030      H1032   1.081       .  S
N1033      N1034   1.319       .  A
N1033      C1037   1.344       .  A
N1033     Cu1041   2.070       .  S
N1034      C1035   1.342       .  A
N1034     Cu1040   2.062       .  S
C1035      C1036   1.387       .  A
C1035      H1038   1.081       .  S
C1036      C1743   1.484       .  S
C1036      C1037   1.389       .  A
C1037      H1039   1.081       .  S
Cu1040     N1043   2.062       .  S
Cu1041     N1051   2.071       .  S
Cu1042     N1044   2.077       .  S
Cu1042     N1050   2.078       .  S
N1043      N1044   1.320       .  A
N1043      C1047   1.340       .  A
N1044      C1045   1.347       .  A
C1045      C1046   1.390       .  A
C1045      H1048   1.081       .  S
C1046      C2986   1.485       .  S
C1046      C1047   1.386       .  A
C1047      H1049   1.081       .  S
N1050      N1051   1.322       .  A
N1050      C1054   1.344       .  A
N1051      C1052   1.344       .  A
C1052      C1053   1.387       .  A
C1052      H1055   1.081       .  S
C1053      C1721   1.486       .  S
C1053      C1054   1.389       .  A
C1054      H1056   1.081       .  S
N1057      N1058   1.320       .  A
N1057      C1061   1.345       .  A
N1057     Cu1065   2.071       .  S
N1058      C1059   1.343       .  A
N1058     Cu1064   2.068       .  S
C1059      C1060   1.388       .  A
C1059      H1062   1.081       .  S
C1060      C1754   1.485       .  S
C1060      C1061   1.388       .  A
C1061      H1063   1.081       .  S
Cu1064     N1067   2.068       .  S
Cu1065     N1075   2.072       .  S
Cu1066     N1068   2.076       .  S
Cu1066     N1074   2.076       .  S
N1067      N1068   1.320       .  A
N1067      C1071   1.342       .  A
N1068      C1069   1.345       .  A
C1069      C1070   1.389       .  A
C1069      H1072   1.081       .  S
C1070      C3096   1.487       .  S
C1070      C1071   1.388       .  A
C1071      H1073   1.081       .  S
N1074      N1075   1.322       .  A
N1074      C1078   1.345       .  A
N1075      C1076   1.344       .  A
C1076      C1077   1.387       .  A
C1076      H1079   1.081       .  S
C1077      C1699   1.485       .  S
C1077      C1078   1.388       .  A
C1078      H1080   1.081       .  S
N1081      N1082   1.320       .  A
N1081      C1085   1.344       .  A
N1081     Cu1089   2.068       .  S
N1082      C1083   1.343       .  A
N1082     Cu1088   2.065       .  S
C1083      C1084   1.387       .  A
C1083      H1086   1.081       .  S
C1084      C1677   1.482       .  S
C1084      C1085   1.387       .  A
C1085      H1087   1.081       .  S
Cu1088     N1091   2.065       .  S
Cu1089     N1099   2.068       .  S
Cu1090     N1092   2.080       .  S
Cu1090     N1098   2.080       .  S
N1091      N1092   1.321       .  A
N1091      C1095   1.341       .  A
N1092      C1093   1.347       .  A
C1093      C1094   1.389       .  A
C1093      H1096   1.081       .  S
C1094      C3228   1.483       .  S
C1094      C1095   1.385       .  A
C1095      H1097   1.081       .  S
N1098      N1099   1.321       .  A
N1098      C1102   1.345       .  A
N1099      C1100   1.342       .  A
C1100      C1101   1.387       .  A
C1100      H1103   1.081       .  S
C1101      C1655   1.487       .  S
C1101      C1102   1.390       .  A
C1102      H1104   1.081       .  S
N1105      N1106   1.320       .  A
N1105      C1109   1.346       .  A
N1105     Cu1113   2.073       .  S
N1106      C1107   1.342       .  A
N1106     Cu1112   2.068       .  S
C1107      C1108   1.386       .  A
C1107      H1110   1.081       .  S
C1108      C1688   1.483       .  S
C1108      C1109   1.388       .  A
C1109      H1111   1.081       .  S
Cu1112     N1115   2.069       .  S
Cu1113     N1123   2.073       .  S
Cu1114     N1116   2.085       .  S
Cu1114     N1122   2.085       .  S
N1115      N1116   1.320       .  A
N1115      C1119   1.342       .  A
N1116      C1117   1.348       .  A
C1117      C1118   1.392       .  A
C1117      H1120   1.081       .  S
C1118      C3404   1.491       .  S
C1118      C1119   1.388       .  A
C1119      H1121   1.081       .  S
N1122      N1123   1.322       .  A
N1122      C1126   1.345       .  A
N1123      C1124   1.344       .  A
C1124      C1125   1.387       .  A
C1124      H1127   1.081       .  S
C1125      C1644   1.488       .  S
C1125      C1126   1.390       .  A
C1126      H1128   1.081       .  S
N1129      N1130   1.320       .  A
N1129      C1133   1.343       .  A
N1129     Cu1137   2.066       .  S
N1130      C1131   1.344       .  A
N1130     Cu1136   2.072       .  S
C1131      C1132   1.390       .  A
C1131      H1134   1.081       .  S
C1132      C1611   1.486       .  S
C1132      C1133   1.388       .  A
C1133      H1135   1.081       .  S
Cu1136     N1139   2.073       .  S
Cu1137     N1147   2.066       .  S
Cu1138     N1140   2.071       .  S
Cu1138     N1146   2.071       .  S
N1139      N1140   1.321       .  A
N1139      C1143   1.343       .  A
N1140      C1141   1.345       .  A
C1141      C1142   1.388       .  A
C1141      H1144   1.081       .  S
C1142      C2964   1.485       .  S
C1142      C1143   1.388       .  A
C1143      H1145   1.081       .  S
N1146      N1147   1.320       .  A
N1146      C1150   1.344       .  A
N1147      C1148   1.342       .  A
C1148      C1149   1.387       .  A
C1148      H1151   1.081       .  S
C1149      C1600   1.485       .  S
C1149      C1150   1.389       .  A
C1150      H1152   1.081       .  S
N1153      N1154   1.320       .  A
N1153      C1157   1.346       .  A
N1153     Cu1161   2.072       .  S
N1154      C1155   1.341       .  A
N1154     Cu1160   2.065       .  S
C1155      C1156   1.386       .  A
C1155      H1158   1.081       .  S
C1156      C1622   1.482       .  S
C1156      C1157   1.388       .  A
C1157      H1159   1.081       .  S
Cu1160     N1163   2.065       .  S
Cu1161     N1171   2.073       .  S
Cu1162     N1164   2.080       .  S
Cu1162     N1170   2.081       .  S
N1163      N1164   1.321       .  A
N1163      C1167   1.342       .  A
N1164      C1165   1.347       .  A
C1165      C1166   1.388       .  A
C1165      H1168   1.082       .  S
C1166      C3052   1.482       .  S
C1166      C1167   1.385       .  A
C1167      H1169   1.082       .  S
N1170      N1171   1.322       .  A
N1170      C1174   1.345       .  A
N1171      C1172   1.344       .  A
C1172      C1173   1.387       .  A
C1172      H1175   1.081       .  S
C1173      C1567   1.487       .  S
C1173      C1174   1.389       .  A
C1174      H1176   1.081       .  S
N1177      N1178   1.319       .  A
N1177      C1181   1.345       .  A
N1177     Cu1185   2.069       .  S
N1178      C1179   1.342       .  A
N1178     Cu1184   2.064       .  S
C1179      C1180   1.387       .  A
C1179      H1182   1.081       .  S
C1180      C1545   1.484       .  S
C1180      C1181   1.389       .  A
C1181      H1183   1.081       .  S
Cu1184     N1187   2.064       .  S
Cu1185     N1195   2.070       .  S
Cu1186     N1188   2.080       .  S
Cu1186     N1194   2.080       .  S
N1187      N1188   1.320       .  A
N1187      C1191   1.340       .  A
N1188      C1189   1.348       .  A
C1189      C1190   1.391       .  A
C1189      H1192   1.081       .  S
C1190      C3140   1.486       .  S
C1190      C1191   1.386       .  A
C1191      H1193   1.081       .  S
N1194      N1195   1.322       .  A
N1194      C1198   1.345       .  A
N1195      C1196   1.343       .  A
C1196      C1197   1.386       .  A
C1196      H1199   1.081       .  S
C1197      C1523   1.484       .  S
C1197      C1198   1.389       .  A
C1198      H1200   1.081       .  S
N1201      N1202   1.320       .  A
N1201      C1205   1.346       .  A
N1201     Cu1209   2.076       .  S
N1202      C1203   1.342       .  A
N1202     Cu1208   2.068       .  S
C1203      C1204   1.388       .  A
C1203      H1206   1.081       .  S
C1204      C1556   1.487       .  S
C1204      C1205   1.390       .  A
C1205      H1207   1.081       .  S
Cu1208     N1211   2.068       .  S
Cu1209     N1219   2.077       .  S
Cu1210     N1212   2.069       .  S
Cu1210     N1218   2.070       .  S
N1211      N1212   1.320       .  A
N1211      C1215   1.343       .  A
N1212      C1213   1.345       .  A
C1213      C1214   1.387       .  A
C1213      H1216   1.081       .  S
C1214      C3305   1.481       .  S
C1214      C1215   1.386       .  A
C1215      H1217   1.081       .  S
N1218      N1219   1.322       .  A
N1218      C1222   1.344       .  A
N1219      C1220   1.344       .  A
C1220      C1221   1.386       .  A
C1220      H1223   1.081       .  S
C1221      C1512   1.481       .  S
C1221      C1222   1.385       .  A
C1222      H1224   1.081       .  S
C1225      C2392   1.491       .  S
C1225      C1226   1.412       .  A
C1225      C1230   1.413       .  A
C1226      C1479   1.485       .  S
C1226      C1227   1.416       .  A
C1227      C2832   1.485       .  S
C1227      C1228   1.416       .  A
C1228      C1710   1.487       .  S
C1228      C1229   1.413       .  A
C1229      C2524   1.485       .  S
C1229      C1230   1.412       .  A
C1230      C1534   1.479       .  S
C1231      C1501   1.487       .  S
C1231      C1232   1.417       .  A
C1231      C1236   1.415       .  A
C1232      C2920   1.484       .  S
C1232      C1233   1.413       .  A
C1233      C1578   1.488       .  S
C1233      C1234   1.413       .  A
C1234      C2843   1.482       .  S
C1234      C1235   1.412       .  A
C1235      C1633   1.484       .  S
C1235      C1236   1.412       .  A
C1236      C2788   1.487       .  S
C1237      C1908   1.483       .  S
C1237      C1238   1.414       .  A
C1237      C1242   1.413       .  A
C1238      C2766   1.486       .  S
C1238      C1239   1.413       .  A
C1239      C1831   1.483       .  S
C1239      C1240   1.413       .  A
C1240      C2722   1.489       .  S
C1240      C1241   1.414       .  A
C1241      C1589   1.480       .  S
C1241      C1242   1.413       .  A
C1242      C2656   1.487       .  S
C1243      C2887   1.482       .  S
C1243      C1244   1.413       .  A
C1243      C1248   1.411       .  A
C1244      C1776   1.486       .  S
C1244      C1245   1.413       .  A
C1245      C2590   1.483       .  S
C1245      C1246   1.412       .  A
C1246      C1666   1.486       .  S
C1246      C1247   1.413       .  A
C1247      C2458   1.481       .  S
C1247      C1248   1.410       .  A
C1248      C1974   1.484       .  S
N1249      N1250   1.320       .  A
N1249      C1253   1.346       .  A
N1249     Cu1257   2.076       .  S
N1250      C1251   1.342       .  A
N1250     Cu1256   2.065       .  S
C1251      C1252   1.388       .  A
C1251      H1254   1.081       .  S
C1252      C1457   1.487       .  S
C1252      C1253   1.390       .  A
C1253      H1255   1.081       .  S
Cu1256     N1259   2.065       .  S
Cu1257     N1267   2.076       .  S
Cu1258     N1260   2.081       .  S
Cu1258     N1266   2.081       .  S
N1259      N1260   1.320       .  A
N1259      C1263   1.342       .  A
N1260      C1261   1.347       .  A
C1261      C1262   1.391       .  A
C1261      H1264   1.081       .  S
C1262      C3239   1.487       .  S
C1262      C1263   1.387       .  A
C1263      H1265   1.081       .  S
N1266      N1267   1.322       .  A
N1266      C1270   1.345       .  A
N1267      C1268   1.345       .  A
C1268      C1269   1.388       .  A
C1268      H1271   1.081       .  S
C1269      C1446   1.489       .  S
C1269      C1270   1.389       .  A
C1270      H1272   1.081       .  S
N1273      N1274   1.319       .  A
N1273      C1277   1.346       .  A
N1273     Cu1281   2.073       .  S
N1274      C1275   1.342       .  A
N1274     Cu1280   2.065       .  S
C1275      C1276   1.387       .  A
C1275      H1278   1.081       .  S
C1276      C1468   1.485       .  S
C1276      C1277   1.390       .  A
C1277      H1279   1.081       .  S
Cu1280     N1283   2.065       .  S
Cu1281     N1291   2.074       .  S
Cu1282     N1284   2.083       .  S
Cu1282     N1290   2.084       .  S
N1283      N1284   1.320       .  A
N1283      C1287   1.341       .  A
N1284      C1285   1.348       .  A
C1285      C1286   1.392       .  A
C1285      H1288   1.081       .  S
C1286      C3448   1.489       .  S
C1286      C1287   1.387       .  A
C1287      H1289   1.080       .  S
N1290      N1291   1.323       .  A
N1290      C1294   1.346       .  A
N1291      C1292   1.343       .  A
C1292      C1293   1.385       .  A
C1292      H1295   1.081       .  S
C1293      C1490   1.484       .  S
C1293      C1294   1.388       .  A
C1294      H1296   1.081       .  S
C1297      C2568   1.482       .  S
C1297      C1298   1.411       .  A
C1297      C1302   1.410       .  A
C1298      C1435   1.485       .  S
C1298      C1299   1.413       .  A
C1299      C2194   1.485       .  S
C1299      C1300   1.415       .  A
C1300      C1985   1.482       .  S
C1300      C1301   1.414       .  A
C1301      C2502   1.486       .  S
C1301      C1302   1.410       .  A
C1302      C1424   1.480       .  S
C1303      C2095   1.486       .  S
C1303      C1304   1.415       .  A
C1303      C1308   1.414       .  A
C1304      C2689   1.486       .  S
C1304      C1305   1.415       .  A
C1305      C1732   1.485       .  S
C1305      C1306   1.414       .  A
C1306      C2326   1.487       .  S
C1306      C1307   1.412       .  A
C1307      C1930   1.483       .  S
C1307      C1308   1.412       .  A
C1308      C2359   1.483       .  S
C1309      C1787   1.489       .  S
C1309      C1310   1.413       .  A
C1309      C1314   1.412       .  A
C1310      C2634   1.481       .  S
C1310      C1311   1.416       .  A
C1311      C2040   1.486       .  S
C1311      C1312   1.413       .  A
C1312      C2436   1.489       .  S
C1312      C1313   1.414       .  A
C1313      C1864   1.481       .  S
C1313      C1314   1.413       .  A
C1314      C2249   1.484       .  S
N1315      N1316   1.319       .  A
N1315      C1319   1.345       .  A
N1315     Cu1323   2.070       .  S
N1316      C1317   1.343       .  A
N1316     Cu1322   2.069       .  S
C1317      C1318   1.389       .  A
C1317      H1320   1.081       .  S
C1318      C1391   1.487       .  S
C1318      C1319   1.389       .  A
C1319      H1321   1.081       .  S
Cu1322     N1325   2.069       .  S
Cu1323     N1333   2.071       .  S
Cu1324     N1326   2.076       .  S
Cu1324     N1332   2.077       .  S
N1325      N1326   1.321       .  A
N1325      C1329   1.342       .  A
N1326      C1327   1.347       .  A
C1327      C1328   1.390       .  A
C1327      H1330   1.081       .  S
C1328      C3030   1.486       .  S
C1328      C1329   1.387       .  A
C1329      H1331   1.081       .  S
N1332      N1333   1.322       .  A
N1332      C1336   1.345       .  A
N1333      C1334   1.343       .  A
C1334      C1335   1.386       .  A
C1334      H1337   1.081       .  S
C1335      C1369   1.483       .  S
C1335      C1336   1.388       .  A
C1336      H1338   1.081       .  S
N1339      N1340   1.319       .  A
N1339      C1343   1.345       .  A
N1339     Cu1347   2.070       .  S
N1340      C1341   1.343       .  A
N1340     Cu1346   2.070       .  S
C1341      C1342   1.389       .  A
C1341      H1344   1.081       .  S
C1342      C1402   1.487       .  S
C1342      C1343   1.389       .  A
C1343      H1345   1.081       .  S
Cu1346     N1349   2.070       .  S
Cu1347     N1357   2.071       .  S
Cu1348     N1350   2.080       .  S
Cu1348     N1356   2.080       .  S
N1349      N1350   1.321       .  A
N1349      C1353   1.342       .  A
N1350      C1351   1.347       .  A
C1351      C1352   1.391       .  A
C1351      H1354   1.081       .  S
C1352      C3107   1.489       .  S
C1352      C1353   1.388       .  A
C1353      H1355   1.081       .  S
N1356      N1357   1.322       .  A
N1356      C1360   1.346       .  A
N1357      C1358   1.343       .  A
C1358      C1359   1.385       .  A
C1358      H1361   1.081       .  S
C1359      C1413   1.483       .  S
C1359      C1360   1.388       .  A
C1360      H1362   1.081       .  S
C1363      C2172   1.484       .  S
C1363      C1364   1.414       .  A
C1363      C1368   1.413       .  A
C1364      C2062   1.483       .  S
C1364      C1365   1.412       .  A
C1365      C2293   1.485       .  S
C1365      C1366   1.411       .  A
C1366      C1380   1.483       .  S
C1366      C1367   1.412       .  A
C1367      C2227   1.484       .  S
C1367      C1368   1.414       .  A
C1368      C2117   1.486       .  S
C1369      C1370   1.409       .  A
C1369      C1374   1.407       .  A
C1370      C1371   1.398       .  A
C1370      H1383   1.081       .  S
C1371      C1372   1.398       .  A
C1371      H1384   1.084       .  S
C1372      C1373   1.399       .  A
C1372      C1375   1.437       .  S
C1373      C1374   1.397       .  A
C1373      H1385   1.084       .  S
C1374      H1386   1.082       .  S
C1375      C1376   1.204       .  T
C1376      C1377   1.437       .  S
C1377      C1378   1.399       .  A
C1377      C1382   1.402       .  A
C1378      C1379   1.394       .  A
C1378      H1387   1.084       .  S
C1379      C1380   1.403       .  A
C1379      H1388   1.083       .  S
C1380      C1381   1.404       .  A
C1381      C1382   1.400       .  A
C1381      H1389   1.083       .  S
C1382      H1390   1.083       .  S
C1391      C1392   1.408       .  A
C1391      C1396   1.410       .  A
C1392      C1393   1.396       .  A
C1392      H1405   1.081       .  S
C1393      C1394   1.398       .  A
C1393      H1406   1.084       .  S
C1394      C1395   1.399       .  A
C1394      C1397   1.439       .  S
C1395      C1396   1.401       .  A
C1395      H1407   1.083       .  S
C1396      H1408   1.081       .  S
C1397      C1398   1.206       .  T
C1398      C1399   1.439       .  S
C1399      C1400   1.399       .  A
C1399      C1404   1.398       .  A
C1400      C1401   1.401       .  A
C1400      H1409   1.083       .  S
C1401      C1402   1.410       .  A
C1401      H1410   1.081       .  S
C1402      C1403   1.408       .  A
C1403      C1404   1.396       .  A
C1403      H1411   1.081       .  S
C1404      H1412   1.084       .  S
C1413      C1414   1.407       .  A
C1413      C1418   1.408       .  A
C1414      C1415   1.399       .  A
C1414      H1427   1.082       .  S
C1415      C1416   1.400       .  A
C1415      H1428   1.084       .  S
C1416      C1417   1.398       .  A
C1416      C1419   1.438       .  S
C1417      C1418   1.397       .  A
C1417      H1429   1.084       .  S
C1418      H1430   1.082       .  S
C1419      C1420   1.205       .  T
C1420      C1421   1.438       .  S
C1421      C1422   1.402       .  A
C1421      C1426   1.399       .  A
C1422      C1423   1.400       .  A
C1422      H1431   1.083       .  S
C1423      C1424   1.403       .  A
C1423      H1432   1.083       .  S
C1424      C1425   1.403       .  A
C1425      C1426   1.394       .  A
C1425      H1433   1.083       .  S
C1426      H1434   1.084       .  S
C1435      C1436   1.403       .  A
C1435      C1440   1.404       .  A
C1436      C1437   1.401       .  A
C1436      H1449   1.083       .  S
C1437      C1438   1.403       .  A
C1437      H1450   1.083       .  S
C1438      C1439   1.399       .  A
C1438      C1441   1.441       .  S
C1439      C1440   1.396       .  A
C1439      H1451   1.084       .  S
C1440      H1452   1.083       .  S
C1441      C1442   1.207       .  T
C1442      C1443   1.442       .  S
C1443      C1444   1.399       .  A
C1443      C1448   1.399       .  A
C1444      C1445   1.399       .  A
C1444      H1453   1.084       .  S
C1445      C1446   1.409       .  A
C1445      H1454   1.081       .  S
C1446      C1447   1.409       .  A
C1447      C1448   1.399       .  A
C1447      H1455   1.081       .  S
C1448      H1456   1.084       .  S
C1457      C1458   1.409       .  A
C1457      C1462   1.408       .  A
C1458      C1459   1.400       .  A
C1458      H1471   1.081       .  S
C1459      C1460   1.399       .  A
C1459      H1472   1.083       .  S
C1460      C1461   1.398       .  A
C1460      C1463   1.439       .  S
C1461      C1462   1.396       .  A
C1461      H1473   1.084       .  S
C1462      H1474   1.081       .  S
C1463      C1464   1.206       .  T
C1464      C1465   1.439       .  S
C1465      C1466   1.398       .  A
C1465      C1470   1.399       .  A
C1466      C1467   1.396       .  A
C1466      H1475   1.084       .  S
C1467      C1468   1.408       .  A
C1467      H1476   1.081       .  S
C1468      C1469   1.409       .  A
C1469      C1470   1.400       .  A
C1469      H1477   1.082       .  S
C1470      H1478   1.083       .  S
C1479      C1480   1.403       .  A
C1479      C1484   1.404       .  A
C1480      C1481   1.395       .  A
C1480      H1493   1.083       .  S
C1481      C1482   1.399       .  A
C1481      H1494   1.084       .  S
C1482      C1483   1.402       .  A
C1482      C1485   1.439       .  S
C1483      C1484   1.401       .  A
C1483      H1495   1.083       .  S
C1484      H1496   1.083       .  S
C1485      C1486   1.206       .  T
C1486      C1487   1.440       .  S
C1487      C1488   1.398       .  A
C1487      C1492   1.400       .  A
C1488      C1489   1.398       .  A
C1488      H1497   1.084       .  S
C1489      C1490   1.408       .  A
C1489      H1498   1.082       .  S
C1490      C1491   1.407       .  A
C1491      C1492   1.399       .  A
C1491      H1499   1.082       .  S
C1492      H1500   1.084       .  S
C1501      C1502   1.405       .  A
C1501      C1506   1.404       .  A
C1502      C1503   1.399       .  A
C1502      H1515   1.083       .  S
C1503      C1504   1.401       .  A
C1503      H1516   1.083       .  S
C1504      C1505   1.399       .  A
C1504      C1507   1.438       .  S
C1505      C1506   1.395       .  A
C1505      H1517   1.084       .  S
C1506      H1518   1.083       .  S
C1507      C1508   1.205       .  T
C1508      C1509   1.438       .  S
C1509      C1510   1.399       .  A
C1509      C1514   1.399       .  A
C1510      C1511   1.398       .  A
C1510      H1519   1.084       .  S
C1511      C1512   1.407       .  A
C1511      H1520   1.082       .  S
C1512      C1513   1.407       .  A
C1513      C1514   1.398       .  A
C1513      H1521   1.082       .  S
C1514      H1522   1.084       .  S
C1523      C1524   1.407       .  A
C1523      C1528   1.409       .  A
C1524      C1525   1.397       .  A
C1524      H1537   1.081       .  S
C1525      C1526   1.398       .  A
C1525      H1538   1.084       .  S
C1526      C1527   1.397       .  A
C1526      C1529   1.436       .  S
C1527      C1528   1.397       .  A
C1527      H1539   1.084       .  S
C1528      H1540   1.081       .  S
C1529      C1530   1.203       .  T
C1530      C1531   1.435       .  S
C1531      C1532   1.401       .  A
C1531      C1536   1.399       .  A
C1532      C1533   1.398       .  A
C1532      H1541   1.083       .  S
C1533      C1534   1.403       .  A
C1533      H1542   1.083       .  S
C1534      C1535   1.402       .  A
C1535      C1536   1.394       .  A
C1535      H1543   1.083       .  S
C1536      H1544   1.084       .  S
C1545      C1546   1.408       .  A
C1545      C1550   1.408       .  A
C1546      C1547   1.399       .  A
C1546      H1559   1.081       .  S
C1547      C1548   1.399       .  A
C1547      H1560   1.084       .  S
C1548      C1549   1.398       .  A
C1548      C1551   1.439       .  S
C1549      C1550   1.397       .  A
C1549      H1561   1.084       .  S
C1550      H1562   1.081       .  S
C1551      C1552   1.206       .  T
C1552      C1553   1.439       .  S
C1553      C1554   1.398       .  A
C1553      C1558   1.399       .  A
C1554      C1555   1.397       .  A
C1554      H1563   1.084       .  S
C1555      C1556   1.409       .  A
C1555      H1564   1.081       .  S
C1556      C1557   1.409       .  A
C1557      C1558   1.400       .  A
C1557      H1565   1.081       .  S
C1558      H1566   1.083       .  S
C1567      C1568   1.409       .  A
C1567      C1572   1.408       .  A
C1568      C1569   1.399       .  A
C1568      H1581   1.081       .  S
C1569      C1570   1.398       .  A
C1569      H1582   1.084       .  S
C1570      C1571   1.399       .  A
C1570      C1573   1.441       .  S
C1571      C1572   1.399       .  A
C1571      H1583   1.084       .  S
C1572      H1584   1.081       .  S
C1573      C1574   1.207       .  T
C1574      C1575   1.441       .  S
C1575      C1576   1.400       .  A
C1575      C1580   1.402       .  A
C1576      C1577   1.397       .  A
C1576      H1585   1.083       .  S
C1577      C1578   1.403       .  A
C1577      H1586   1.083       .  S
C1578      C1579   1.405       .  A
C1579      C1580   1.400       .  A
C1579      H1587   1.083       .  S
C1580      H1588   1.083       .  S
C1589      C1590   1.403       .  A
C1589      C1594   1.403       .  A
C1590      C1591   1.398       .  A
C1590      H1603   1.083       .  S
C1591      C1592   1.401       .  A
C1591      H1604   1.083       .  S
C1592      C1593   1.399       .  A
C1592      C1595   1.435       .  S
C1593      C1594   1.394       .  A
C1593      H1605   1.084       .  S
C1594      H1606   1.083       .  S
C1595      C1596   1.203       .  T
C1596      C1597   1.435       .  S
C1597      C1598   1.398       .  A
C1597      C1602   1.397       .  A
C1598      C1599   1.398       .  A
C1598      H1607   1.084       .  S
C1599      C1600   1.408       .  A
C1599      H1608   1.081       .  S
C1600      C1601   1.409       .  A
C1601      C1602   1.396       .  A
C1601      H1609   1.080       .  S
C1602      H1610   1.084       .  S
C1611      C1612   1.410       .  A
C1611      C1616   1.408       .  A
C1612      C1613   1.399       .  A
C1612      H1625   1.081       .  S
C1613      C1614   1.398       .  A
C1613      H1626   1.084       .  S
C1614      C1615   1.399       .  A
C1614      C1617   1.438       .  S
C1615      C1616   1.397       .  A
C1615      H1627   1.084       .  S
C1616      H1628   1.081       .  S
C1617      C1618   1.205       .  T
C1618      C1619   1.438       .  S
C1619      C1620   1.397       .  A
C1619      C1624   1.400       .  A
C1620      C1621   1.394       .  A
C1620      H1629   1.084       .  S
C1621      C1622   1.407       .  A
C1621      H1630   1.081       .  S
C1622      C1623   1.408       .  A
C1623      C1624   1.401       .  A
C1623      H1631   1.082       .  S
C1624      H1632   1.083       .  S
C1633      C1634   1.403       .  A
C1633      C1638   1.404       .  A
C1634      C1635   1.395       .  A
C1634      H1647   1.083       .  S
C1635      C1636   1.399       .  A
C1635      H1648   1.083       .  S
C1636      C1637   1.402       .  A
C1636      C1639   1.439       .  S
C1637      C1638   1.401       .  A
C1637      H1649   1.083       .  S
C1638      H1650   1.083       .  S
C1639      C1640   1.206       .  T
C1640      C1641   1.440       .  S
C1641      C1642   1.398       .  A
C1641      C1646   1.399       .  A
C1642      C1643   1.399       .  A
C1642      H1651   1.084       .  S
C1643      C1644   1.410       .  A
C1643      H1652   1.081       .  S
C1644      C1645   1.408       .  A
C1645      C1646   1.398       .  A
C1645      H1653   1.081       .  S
C1646      H1654   1.084       .  S
C1655      C1656   1.408       .  A
C1655      C1660   1.410       .  A
C1656      C1657   1.398       .  A
C1656      H1669   1.081       .  S
C1657      C1658   1.399       .  A
C1657      H1670   1.084       .  S
C1658      C1659   1.397       .  A
C1658      C1661   1.439       .  S
C1659      C1660   1.398       .  A
C1659      H1671   1.084       .  S
C1660      H1672   1.081       .  S
C1661      C1662   1.205       .  T
C1662      C1663   1.438       .  S
C1663      C1664   1.401       .  A
C1663      C1668   1.399       .  A
C1664      C1665   1.400       .  A
C1664      H1673   1.083       .  S
C1665      C1666   1.405       .  A
C1665      H1674   1.083       .  S
C1666      C1667   1.403       .  A
C1667      C1668   1.395       .  A
C1667      H1675   1.083       .  S
C1668      H1676   1.084       .  S
C1677      C1678   1.408       .  A
C1677      C1682   1.407       .  A
C1678      C1679   1.399       .  A
C1678      H1691   1.082       .  S
C1679      C1680   1.399       .  A
C1679      H1692   1.084       .  S
C1680      C1681   1.398       .  A
C1680      C1683   1.438       .  S
C1681      C1682   1.396       .  A
C1681      H1693   1.084       .  S
C1682      H1694   1.082       .  S
C1683      C1684   1.205       .  T
C1684      C1685   1.438       .  S
C1685      C1686   1.398       .  A
C1685      C1690   1.400       .  A
C1686      C1687   1.395       .  A
C1686      H1695   1.084       .  S
C1687      C1688   1.407       .  A
C1687      H1696   1.082       .  S
C1688      C1689   1.408       .  A
C1689      C1690   1.400       .  A
C1689      H1697   1.082       .  S
C1690      H1698   1.083       .  S
C1699      C1700   1.407       .  A
C1699      C1704   1.409       .  A
C1700      C1701   1.398       .  A
C1700      H1713   1.082       .  S
C1701      C1702   1.399       .  A
C1701      H1714   1.084       .  S
C1702      C1703   1.399       .  A
C1702      C1705   1.440       .  S
C1703      C1704   1.399       .  A
C1703      H1715   1.083       .  S
C1704      H1716   1.082       .  S
C1705      C1706   1.206       .  T
C1706      C1707   1.440       .  S
C1707      C1708   1.402       .  A
C1707      C1712   1.400       .  A
C1708      C1709   1.400       .  A
C1708      H1717   1.083       .  S
C1709      C1710   1.405       .  A
C1709      H1718   1.083       .  S
C1710      C1711   1.404       .  A
C1711      C1712   1.397       .  A
C1711      H1719   1.083       .  S
C1712      H1720   1.084       .  S
C1721      C1722   1.410       .  A
C1721      C1726   1.408       .  A
C1722      C1723   1.399       .  A
C1722      H1735   1.081       .  S
C1723      C1724   1.398       .  A
C1723      H1736   1.084       .  S
C1724      C1725   1.398       .  A
C1724      C1727   1.438       .  S
C1725      C1726   1.396       .  A
C1725      H1737   1.084       .  S
C1726      H1738   1.081       .  S
C1727      C1728   1.205       .  T
C1728      C1729   1.438       .  S
C1729      C1730   1.399       .  A
C1729      C1734   1.401       .  A
C1730      C1731   1.395       .  A
C1730      H1739   1.084       .  S
C1731      C1732   1.404       .  A
C1731      H1740   1.083       .  S
C1732      C1733   1.404       .  A
C1733      C1734   1.399       .  A
C1733      H1741   1.083       .  S
C1734      H1742   1.083       .  S
C1743      C1744   1.408       .  A
C1743      C1748   1.409       .  A
C1744      C1745   1.396       .  A
C1744      H1757   1.081       .  S
C1745      C1746   1.398       .  A
C1745      H1758   1.084       .  S
C1746      C1747   1.398       .  A
C1746      C1749   1.437       .  S
C1747      C1748   1.399       .  A
C1747      H1759   1.083       .  S
C1748      H1760   1.081       .  S
C1749      C1750   1.204       .  T
C1750      C1751   1.437       .  S
C1751      C1752   1.399       .  A
C1751      C1756   1.397       .  A
C1752      C1753   1.400       .  A
C1752      H1761   1.084       .  S
C1753      C1754   1.409       .  A
C1753      H1762   1.081       .  S
C1754      C1755   1.407       .  A
C1755      C1756   1.395       .  A
C1755      H1763   1.081       .  S
C1756      H1764   1.084       .  S
C1765      C1766   1.409       .  A
C1765      C1770   1.408       .  A
C1766      C1767   1.397       .  A
C1766      H1779   1.081       .  S
C1767      C1768   1.397       .  A
C1767      H1780   1.084       .  S
C1768      C1769   1.399       .  A
C1768      C1771   1.437       .  S
C1769      C1770   1.397       .  A
C1769      H1781   1.084       .  S
C1770      H1782   1.081       .  S
C1771      C1772   1.204       .  T
C1772      C1773   1.437       .  S
C1773      C1774   1.398       .  A
C1773      C1778   1.402       .  A
C1774      C1775   1.394       .  A
C1774      H1783   1.084       .  S
C1775      C1776   1.403       .  A
C1775      H1784   1.083       .  S
C1776      C1777   1.405       .  A
C1777      C1778   1.400       .  A
C1777      H1785   1.083       .  S
C1778      H1786   1.083       .  S
C1787      C1788   1.405       .  A
C1787      C1792   1.403       .  A
C1788      C1789   1.402       .  A
C1788      H1801   1.083       .  S
C1789      C1790   1.402       .  A
C1789      H1802   1.083       .  S
C1790      C1791   1.400       .  A
C1790      C1793   1.442       .  S
C1791      C1792   1.397       .  A
C1791      H1803   1.083       .  S
C1792      H1804   1.083       .  S
C1793      C1794   1.208       .  T
C1794      C1795   1.443       .  S
C1795      C1796   1.400       .  A
C1795      C1800   1.399       .  A
C1796      C1797   1.399       .  A
C1796      H1805   1.083       .  S
C1797      C1798   1.407       .  A
C1797      H1806   1.082       .  S
C1798      C1799   1.409       .  A
C1799      C1800   1.400       .  A
C1799      H1807   1.081       .  S
C1800      H1808   1.084       .  S
C1809      C1810   1.409       .  A
C1809      C1814   1.407       .  A
C1810      C1811   1.399       .  A
C1810      H1823   1.081       .  S
C1811      C1812   1.399       .  A
C1811      H1824   1.084       .  S
C1812      C1813   1.398       .  A
C1812      C1815   1.437       .  S
C1813      C1814   1.396       .  A
C1813      H1825   1.084       .  S
C1814      H1826   1.081       .  S
C1815      C1816   1.204       .  T
C1816      C1817   1.437       .  S
C1817      C1818   1.397       .  A
C1817      C1822   1.399       .  A
C1818      C1819   1.394       .  A
C1818      H1827   1.084       .  S
C1819      C1820   1.408       .  A
C1819      H1828   1.081       .  S
C1820      C1821   1.409       .  A
C1821      C1822   1.400       .  A
C1821      H1829   1.082       .  S
C1822      H1830   1.083       .  S
C1831      C1832   1.404       .  A
C1831      C1836   1.404       .  A
C1832      C1833   1.394       .  A
C1832      H1845   1.083       .  S
C1833      C1834   1.399       .  A
C1833      H1846   1.084       .  S
C1834      C1835   1.402       .  A
C1834      C1837   1.437       .  S
C1835      C1836   1.400       .  A
C1835      H1847   1.083       .  S
C1836      H1848   1.083       .  S
C1837      C1838   1.204       .  T
C1838      C1839   1.437       .  S
C1839      C1840   1.398       .  A
C1839      C1844   1.398       .  A
C1840      C1841   1.398       .  A
C1840      H1849   1.084       .  S
C1841      C1842   1.409       .  A
C1841      H1850   1.081       .  S
C1842      C1843   1.408       .  A
C1843      C1844   1.397       .  A
C1843      H1851   1.081       .  S
C1844      H1852   1.084       .  S
C1853      C1854   1.408       .  A
C1853      C1858   1.409       .  A
C1854      C1855   1.396       .  A
C1854      H1867   1.081       .  S
C1855      C1856   1.398       .  A
C1855      H1868   1.084       .  S
C1856      C1857   1.397       .  A
C1856      C1859   1.435       .  S
C1857      C1858   1.397       .  A
C1857      H1869   1.084       .  S
C1858      H1870   1.081       .  S
C1859      C1860   1.203       .  T
C1860      C1861   1.435       .  S
C1861      C1862   1.401       .  A
C1861      C1866   1.398       .  A
C1862      C1863   1.399       .  A
C1862      H1871   1.083       .  S
C1863      C1864   1.404       .  A
C1863      H1872   1.083       .  S
C1864      C1865   1.403       .  A
C1865      C1866   1.393       .  A
C1865      H1873   1.083       .  S
C1866      H1874   1.084       .  S
C1875      C1876   1.409       .  A
C1875      C1880   1.408       .  A
C1876      C1877   1.400       .  A
C1876      H1889   1.081       .  S
C1877      C1878   1.399       .  A
C1877      H1890   1.084       .  S
C1878      C1879   1.398       .  A
C1878      C1881   1.438       .  S
C1879      C1880   1.396       .  A
C1879      H1891   1.084       .  S
C1880      H1892   1.081       .  S
C1881      C1882   1.205       .  T
C1882      C1883   1.438       .  S
C1883      C1884   1.397       .  A
C1883      C1888   1.399       .  A
C1884      C1885   1.395       .  A
C1884      H1893   1.084       .  S
C1885      C1886   1.408       .  A
C1885      H1894   1.081       .  S
C1886      C1887   1.409       .  A
C1887      C1888   1.400       .  A
C1887      H1895   1.081       .  S
C1888      H1896   1.083       .  S
C1897      C1898   1.408       .  A
C1897      C1902   1.409       .  A
C1898      C1899   1.398       .  A
C1898      H1911   1.081       .  S
C1899      C1900   1.399       .  A
C1899      H1912   1.084       .  S
C1900      C1901   1.397       .  A
C1900      C1903   1.437       .  S
C1901      C1902   1.397       .  A
C1901      H1913   1.084       .  S
C1902      H1914   1.081       .  S
C1903      C1904   1.204       .  T
C1904      C1905   1.436       .  S
C1905      C1906   1.402       .  A
C1905      C1910   1.398       .  A
C1906      C1907   1.400       .  A
C1906      H1915   1.083       .  S
C1907      C1908   1.404       .  A
C1907      H1916   1.083       .  S
C1908      C1909   1.403       .  A
C1909      C1910   1.394       .  A
C1909      H1917   1.083       .  S
C1910      H1918   1.084       .  S
C1919      C1920   1.407       .  A
C1919      C1924   1.409       .  A
C1920      C1921   1.399       .  A
C1920      H1933   1.082       .  S
C1921      C1922   1.399       .  A
C1921      H1934   1.084       .  S
C1922      C1923   1.398       .  A
C1922      C1925   1.439       .  S
C1923      C1924   1.398       .  A
C1923      H1935   1.084       .  S
C1924      H1936   1.081       .  S
C1925      C1926   1.206       .  T
C1926      C1927   1.439       .  S
C1927      C1928   1.402       .  A
C1927      C1932   1.399       .  A
C1928      C1929   1.400       .  A
C1928      H1937   1.083       .  S
C1929      C1930   1.404       .  A
C1929      H1938   1.083       .  S
C1930      C1931   1.403       .  A
C1931      C1932   1.395       .  A
C1931      H1939   1.083       .  S
C1932      H1940   1.084       .  S
C1941      C1942   1.407       .  A
C1941      C1946   1.406       .  A
C1942      C1943   1.399       .  A
C1942      H1955   1.082       .  S
C1943      C1944   1.399       .  A
C1943      H1956   1.083       .  S
C1944      C1945   1.398       .  A
C1944      C1947   1.436       .  S
C1945      C1946   1.395       .  A
C1945      H1957   1.084       .  S
C1946      H1958   1.082       .  S
C1947      C1948   1.204       .  T
C1948      C1949   1.436       .  S
C1949      C1950   1.397       .  A
C1949      C1954   1.399       .  A
C1950      C1951   1.394       .  A
C1950      H1959   1.084       .  S
C1951      C1952   1.408       .  A
C1951      H1960   1.081       .  S
C1952      C1953   1.409       .  A
C1953      C1954   1.400       .  A
C1953      H1961   1.081       .  S
C1954      H1962   1.084       .  S
C1963      C1964   1.409       .  A
C1963      C1968   1.408       .  A
C1964      C1965   1.398       .  A
C1964      H1977   1.081       .  S
C1965      C1966   1.398       .  A
C1965      H1978   1.084       .  S
C1966      C1967   1.399       .  A
C1966      C1969   1.438       .  S
C1967      C1968   1.398       .  A
C1967      H1979   1.084       .  S
C1968      H1980   1.081       .  S
C1969      C1970   1.205       .  T
C1970      C1971   1.438       .  S
C1971      C1972   1.399       .  A
C1971      C1976   1.402       .  A
C1972      C1973   1.395       .  A
C1972      H1981   1.084       .  S
C1973      C1974   1.403       .  A
C1973      H1982   1.083       .  S
C1974      C1975   1.404       .  A
C1975      C1976   1.400       .  A
C1975      H1983   1.083       .  S
C1976      H1984   1.083       .  S
C1985      C1986   1.404       .  A
C1985      C1990   1.403       .  A
C1986      C1987   1.399       .  A
C1986      H1999   1.083       .  S
C1987      C1988   1.401       .  A
C1987      H2000   1.083       .  S
C1988      C1989   1.399       .  A
C1988      C1991   1.437       .  S
C1989      C1990   1.394       .  A
C1989      H2001   1.084       .  S
C1990      H2002   1.083       .  S
C1991      C1992   1.204       .  T
C1992      C1993   1.437       .  S
C1993      C1994   1.398       .  A
C1993      C1998   1.398       .  A
C1994      C1995   1.397       .  A
C1994      H2003   1.084       .  S
C1995      C1996   1.408       .  A
C1995      H2004   1.081       .  S
C1996      C1997   1.409       .  A
C1997      C1998   1.398       .  A
C1997      H2005   1.081       .  S
C1998      H2006   1.084       .  S
C2007      C2008   1.407       .  A
C2007      C2012   1.408       .  A
C2008      C2009   1.395       .  A
C2008      H2021   1.081       .  S
C2009      C2010   1.397       .  A
C2009      H2022   1.084       .  S
C2010      C2011   1.398       .  A
C2010      C2013   1.434       .  S
C2011      C2012   1.398       .  A
C2011      H2023   1.084       .  S
C2012      H2024   1.081       .  S
C2013      C2014   1.203       .  T
C2014      C2015   1.434       .  S
C2015      C2016   1.399       .  A
C2015      C2020   1.397       .  A
C2016      C2017   1.399       .  A
C2016      H2025   1.083       .  S
C2017      C2018   1.407       .  A
C2017      H2026   1.082       .  S
C2018      C2019   1.406       .  A
C2019      C2020   1.394       .  A
C2019      H2027   1.082       .  S
C2020      H2028   1.084       .  S
C2029      C2030   1.408       .  A
C2029      C2034   1.409       .  A
C2030      C2031   1.399       .  A
C2030      H2043   1.081       .  S
C2031      C2032   1.400       .  A
C2031      H2044   1.084       .  S
C2032      C2033   1.398       .  A
C2032      C2035   1.441       .  S
C2033      C2034   1.399       .  A
C2033      H2045   1.084       .  S
C2034      H2046   1.081       .  S
C2035      C2036   1.206       .  T
C2036      C2037   1.440       .  S
C2037      C2038   1.402       .  A
C2037      C2042   1.399       .  A
C2038      C2039   1.401       .  A
C2038      H2047   1.083       .  S
C2039      C2040   1.405       .  A
C2039      H2048   1.083       .  S
C2040      C2041   1.403       .  A
C2041      C2042   1.396       .  A
C2041      H2049   1.083       .  S
C2042      H2050   1.084       .  S
C2051      C2052   1.408       .  A
C2051      C2056   1.409       .  A
C2052      C2053   1.399       .  A
C2052      H2065   1.081       .  S
C2053      C2054   1.399       .  A
C2053      H2066   1.084       .  S
C2054      C2055   1.397       .  A
C2054      C2057   1.438       .  S
C2055      C2056   1.397       .  A
C2055      H2067   1.084       .  S
C2056      H2068   1.081       .  S
C2057      C2058   1.205       .  T
C2058      C2059   1.438       .  S
C2059      C2060   1.402       .  A
C2059      C2064   1.399       .  A
C2060      C2061   1.400       .  A
C2060      H2069   1.083       .  S
C2061      C2062   1.404       .  A
C2061      H2070   1.083       .  S
C2062      C2063   1.403       .  A
C2063      C2064   1.394       .  A
C2063      H2071   1.083       .  S
C2064      H2072   1.084       .  S
C2073      C2074   1.409       .  A
C2073      C2078   1.407       .  A
C2074      C2075   1.401       .  A
C2074      H2087   1.082       .  S
C2075      C2076   1.400       .  A
C2075      H2088   1.083       .  S
C2076      C2077   1.398       .  A
C2076      C2079   1.439       .  S
C2077      C2078   1.396       .  A
C2077      H2089   1.084       .  S
C2078      H2090   1.081       .  S
C2079      C2080   1.206       .  T
C2080      C2081   1.439       .  S
C2081      C2082   1.398       .  A
C2081      C2086   1.399       .  A
C2082      C2083   1.396       .  A
C2082      H2091   1.084       .  S
C2083      C2084   1.408       .  A
C2083      H2092   1.081       .  S
C2084      C2085   1.409       .  A
C2085      C2086   1.401       .  A
C2085      H2093   1.082       .  S
C2086      H2094   1.083       .  S
C2095      C2096   1.405       .  A
C2095      C2100   1.403       .  A
C2096      C2097   1.400       .  A
C2096      H2109   1.083       .  S
C2097      C2098   1.402       .  A
C2097      H2110   1.083       .  S
C2098      C2099   1.399       .  A
C2098      C2101   1.439       .  S
C2099      C2100   1.395       .  A
C2099      H2111   1.084       .  S
C2100      H2112   1.083       .  S
C2101      C2102   1.205       .  T
C2102      C2103   1.439       .  S
C2103      C2104   1.399       .  A
C2103      C2108   1.399       .  A
C2104      C2105   1.398       .  A
C2104      H2113   1.084       .  S
C2105      C2106   1.406       .  A
C2105      H2114   1.082       .  S
C2106      C2107   1.408       .  A
C2107      C2108   1.399       .  A
C2107      H2115   1.082       .  S
C2108      H2116   1.084       .  S
C2117      C2118   1.403       .  A
C2117      C2122   1.405       .  A
C2118      C2119   1.396       .  A
C2118      H2131   1.083       .  S
C2119      C2120   1.399       .  A
C2119      H2132   1.083       .  S
C2120      C2121   1.402       .  A
C2120      C2123   1.440       .  S
C2121      C2122   1.401       .  A
C2121      H2133   1.083       .  S
C2122      H2134   1.083       .  S
C2123      C2124   1.207       .  T
C2124      C2125   1.441       .  S
C2125      C2126   1.398       .  A
C2125      C2130   1.399       .  A
C2126      C2127   1.399       .  A
C2126      H2135   1.084       .  S
C2127      C2128   1.409       .  A
C2127      H2136   1.081       .  S
C2128      C2129   1.408       .  A
C2129      C2130   1.399       .  A
C2129      H2137   1.081       .  S
C2130      H2138   1.084       .  S
C2139      C2140   1.408       .  A
C2139      C2144   1.409       .  A
C2140      C2141   1.397       .  A
C2140      H2153   1.081       .  S
C2141      C2142   1.398       .  A
C2141      H2154   1.084       .  S
C2142      C2143   1.399       .  A
C2142      C2145   1.440       .  S
C2143      C2144   1.401       .  A
C2143      H2155   1.083       .  S
C2144      H2156   1.081       .  S
C2145      C2146   1.206       .  T
C2146      C2147   1.440       .  S
C2147      C2148   1.400       .  A
C2147      C2152   1.398       .  A
C2148      C2149   1.402       .  A
C2148      H2157   1.083       .  S
C2149      C2150   1.409       .  A
C2149      H2158   1.082       .  S
C2150      C2151   1.408       .  A
C2151      C2152   1.395       .  A
C2151      H2159   1.081       .  S
C2152      H2160   1.084       .  S
C2161      C2162   1.410       .  A
C2161      C2166   1.408       .  A
C2162      C2163   1.398       .  A
C2162      H2175   1.081       .  S
C2163      C2164   1.398       .  A
C2163      H2176   1.084       .  S
C2164      C2165   1.399       .  A
C2164      C2167   1.438       .  S
C2165      C2166   1.397       .  A
C2165      H2177   1.084       .  S
C2166      H2178   1.081       .  S
C2167      C2168   1.205       .  T
C2168      C2169   1.437       .  S
C2169      C2170   1.399       .  A
C2169      C2174   1.402       .  A
C2170      C2171   1.394       .  A
C2170      H2179   1.084       .  S
C2171      C2172   1.403       .  A
C2171      H2180   1.083       .  S
C2172      C2173   1.405       .  A
C2173      C2174   1.400       .  A
C2173      H2181   1.083       .  S
C2174      H2182   1.083       .  S
C2183      C2184   1.408       .  A
C2183      C2188   1.408       .  A
C2184      C2185   1.398       .  A
C2184      H2197   1.082       .  S
C2185      C2186   1.399       .  A
C2185      H2198   1.083       .  S
C2186      C2187   1.400       .  A
C2186      C2189   1.441       .  S
C2187      C2188   1.399       .  A
C2187      H2199   1.084       .  S
C2188      H2200   1.082       .  S
C2189      C2190   1.207       .  T
C2190      C2191   1.440       .  S
C2191      C2192   1.399       .  A
C2191      C2196   1.402       .  A
C2192      C2193   1.396       .  A
C2192      H2201   1.083       .  S
C2193      C2194   1.404       .  A
C2193      H2202   1.083       .  S
C2194      C2195   1.404       .  A
C2195      C2196   1.401       .  A
C2195      H2203   1.083       .  S
C2196      H2204   1.083       .  S
C2205      C2206   1.408       .  A
C2205      C2210   1.408       .  A
C2206      C2207   1.401       .  A
C2206      H2219   1.082       .  S
C2207      C2208   1.400       .  A
C2207      H2220   1.083       .  S
C2208      C2209   1.397       .  A
C2208      C2211   1.438       .  S
C2209      C2210   1.395       .  A
C2209      H2221   1.084       .  S
C2210      H2222   1.081       .  S
C2211      C2212   1.205   1_556  T
C2212      C2213   1.438       .  S
C2213      C2214   1.398       .  A
C2213      C2218   1.398       .  A
C2214      C2215   1.396       .  A
C2214      H2223   1.084       .  S
C2215      C2216   1.408       .  A
C2215      H2224   1.081       .  S
C2216      C2217   1.410       .  A
C2217      C2218   1.399       .  A
C2217      H2225   1.081       .  S
C2218      H2226   1.083       .  S
C2227      C2228   1.404       .  A
C2227      C2232   1.404       .  A
C2228      C2229   1.399       .  A
C2228      H2241   1.083       .  S
C2229      C2230   1.401       .  A
C2229      H2242   1.083       .  S
C2230      C2231   1.398       .  A
C2230      C2233   1.436       .  S
C2231      C2232   1.394       .  A
C2231      H2243   1.084       .  S
C2232      H2244   1.083       .  S
C2233      C2234   1.204       .  T
C2234      C2235   1.437       .  S
C2235      C2236   1.399       .  A
C2235      C2240   1.398       .  A
C2236      C2237   1.398       .  A
C2236      H2245   1.084       .  S
C2237      C2238   1.407       .  A
C2237      H2246   1.082       .  S
C2238      C2239   1.408       .  A
C2239      C2240   1.397       .  A
C2239      H2247   1.082       .  S
C2240      H2248   1.084       .  S
C2249      C2250   1.404       .  A
C2249      C2254   1.403       .  A
C2250      C2251   1.399       .  A
C2250      H2263   1.083       .  S
C2251      C2252   1.401       .  A
C2251      H2264   1.083       .  S
C2252      C2253   1.399       .  A
C2252      C2255   1.437       .  S
C2253      C2254   1.395       .  A
C2253      H2265   1.084       .  S
C2254      H2266   1.083       .  S
C2255      C2256   1.205       .  T
C2256      C2257   1.437       .  S
C2257      C2258   1.398       .  A
C2257      C2262   1.398       .  A
C2258      C2259   1.397       .  A
C2258      H2267   1.084       .  S
C2259      C2260   1.408       .  A
C2259      H2268   1.081       .  S
C2260      C2261   1.409       .  A
C2261      C2262   1.398       .  A
C2261      H2269   1.081       .  S
C2262      H2270   1.084       .  S
C2271      C2272   1.406       .  A
C2271      C2276   1.407       .  A
C2272      C2273   1.395       .  A
C2272      H2285   1.082       .  S
C2273      C2274   1.398       .  A
C2273      H2286   1.084       .  S
C2274      C2275   1.399       .  A
C2274      C2277   1.435       .  S
C2275      C2276   1.398       .  A
C2275      H2287   1.084       .  S
C2276      H2288   1.082       .  S
C2277      C2278   1.203   1_655  T
C2278      C2279   1.435       .  S
C2279      C2280   1.398       .  A
C2279      C2284   1.397       .  A
C2280      C2281   1.399       .  A
C2280      H2289   1.083       .  S
C2281      C2282   1.409       .  A
C2281      H2290   1.081       .  S
C2282      C2283   1.407       .  A
C2283      C2284   1.394       .  A
C2283      H2291   1.081       .  S
C2284      H2292   1.084       .  S
C2293      C2294   1.403       .  A
C2293      C2298   1.404       .  A
C2294      C2295   1.396       .  A
C2294      H2307   1.083       .  S
C2295      C2296   1.399       .  A
C2295      H2308   1.083       .  S
C2296      C2297   1.403       .  A
C2296      C2299   1.440       .  S
C2297      C2298   1.401       .  A
C2297      H2309   1.083       .  S
C2298      H2310   1.083       .  S
C2299      C2300   1.207       .  T
C2300      C2301   1.441       .  S
C2301      C2302   1.399       .  A
C2301      C2306   1.399       .  A
C2302      C2303   1.399       .  A
C2302      H2311   1.084       .  S
C2303      C2304   1.409       .  A
C2303      H2312   1.081       .  S
C2304      C2305   1.408       .  A
C2305      C2306   1.399       .  A
C2305      H2313   1.081       .  S
C2306      H2314   1.084       .  S
C2315      C2316   1.410       .  A
C2315      C2320   1.408       .  A
C2316      C2317   1.399       .  A
C2316      H2329   1.081       .  S
C2317      C2318   1.398       .  A
C2317      H2330   1.084       .  S
C2318      C2319   1.399       .  A
C2318      C2321   1.441       .  S
C2319      C2320   1.399       .  A
C2319      H2331   1.084       .  S
C2320      H2332   1.081       .  S
C2321      C2322   1.207       .  T
C2322      C2323   1.440       .  S
C2323      C2324   1.399       .  A
C2323      C2328   1.402       .  A
C2324      C2325   1.395       .  A
C2324      H2333   1.083       .  S
C2325      C2326   1.403       .  A
C2325      H2334   1.083       .  S
C2326      C2327   1.405       .  A
C2327      C2328   1.401       .  A
C2327      H2335   1.083       .  S
C2328      H2336   1.083       .  S
C2337      C2338   1.409       .  A
C2337      C2342   1.408       .  A
C2338      C2339   1.401       .  A
C2338      H2351   1.081       .  S
C2339      C2340   1.400       .  A
C2339      H2352   1.083       .  S
C2340      C2341   1.398       .  A
C2340      C2343   1.441       .  S
C2341      C2342   1.397       .  A
C2341      H2353   1.084       .  S
C2342      H2354   1.081       .  S
C2343      C2344   1.207       .  T
C2344      C2345   1.441       .  S
C2345      C2346   1.398       .  A
C2345      C2350   1.400       .  A
C2346      C2347   1.397       .  A
C2346      H2355   1.084       .  S
C2347      C2348   1.408       .  A
C2347      H2356   1.081       .  S
C2348      C2349   1.409       .  A
C2349      C2350   1.401       .  A
C2349      H2357   1.081       .  S
C2350      H2358   1.083       .  S
C2359      C2360   1.404       .  A
C2359      C2364   1.403       .  A
C2360      C2361   1.400       .  A
C2360      H2373   1.083       .  S
C2361      C2362   1.402       .  A
C2361      H2374   1.083       .  S
C2362      C2363   1.399       .  A
C2362      C2365   1.438       .  S
C2363      C2364   1.395       .  A
C2363      H2375   1.084       .  S
C2364      H2376   1.083       .  S
C2365      C2366   1.205       .  T
C2366      C2367   1.439       .  S
C2367      C2368   1.399       .  A
C2367      C2372   1.398       .  A
C2368      C2369   1.398       .  A
C2368      H2377   1.084       .  S
C2369      C2370   1.408       .  A
C2369      H2378   1.082       .  S
C2370      C2371   1.409       .  A
C2371      C2372   1.398       .  A
C2371      H2379   1.081       .  S
C2372      H2380   1.084       .  S
C2381      C2382   1.409       .  A
C2381      C2386   1.408       .  A
C2382      C2383   1.399       .  A
C2382      H2395   1.081       .  S
C2383      C2384   1.399       .  A
C2383      H2396   1.084       .  S
C2384      C2385   1.400       .  A
C2384      C2387   1.443       .  S
C2385      C2386   1.400       .  A
C2385      H2397   1.083       .  S
C2386      H2398   1.081       .  S
C2387      C2388   1.208       .  T
C2388      C2389   1.443       .  S
C2389      C2390   1.400       .  A
C2389      C2394   1.402       .  A
C2390      C2391   1.397       .  A
C2390      H2399   1.083       .  S
C2391      C2392   1.404       .  A
C2391      H2400   1.083       .  S
C2392      C2393   1.405       .  A
C2393      C2394   1.401       .  A
C2393      H2401   1.083       .  S
C2394      H2402   1.083       .  S
C2403      C2404   1.407       .  A
C2403      C2408   1.407       .  A
C2404      C2405   1.396       .  A
C2404      H2417   1.082       .  S
C2405      C2406   1.398       .  A
C2405      H2418   1.084       .  S
C2406      C2407   1.400       .  A
C2406      C2409   1.439       .  S
C2407      C2408   1.400       .  A
C2407      H2419   1.083       .  S
C2408      H2420   1.082       .  S
C2409      C2410   1.206   1_556  T
C2410      C2411   1.440       .  S
C2411      C2412   1.399       .  A
C2411      C2416   1.398       .  A
C2412      C2413   1.399       .  A
C2412      H2421   1.083       .  S
C2413      C2414   1.409       .  A
C2413      H2422   1.081       .  S
C2414      C2415   1.409       .  A
C2415      C2416   1.398       .  A
C2415      H2423   1.081       .  S
C2416      H2424   1.084       .  S
C2425      C2426   1.408       .  A
C2425      C2430   1.409       .  A
C2426      C2427   1.399       .  A
C2426      H2439   1.082       .  S
C2427      C2428   1.400       .  A
C2427      H2440   1.084       .  S
C2428      C2429   1.399       .  A
C2428      C2431   1.442       .  S
C2429      C2430   1.399       .  A
C2429      H2441   1.084       .  S
C2430      H2442   1.081       .  S
C2431      C2432   1.207       .  T
C2432      C2433   1.442       .  S
C2433      C2434   1.402       .  A
C2433      C2438   1.399       .  A
C2434      C2435   1.401       .  A
C2434      H2443   1.083       .  S
C2435      C2436   1.405       .  A
C2435      H2444   1.083       .  S
C2436      C2437   1.404       .  A
C2437      C2438   1.396       .  A
C2437      H2445   1.083       .  S
C2438      H2446   1.083       .  S
C2447      C2448   1.408       .  A
C2447      C2452   1.409       .  A
C2448      C2449   1.398       .  A
C2448      H2461   1.081       .  S
C2449      C2450   1.399       .  A
C2449      H2462   1.084       .  S
C2450      C2451   1.397       .  A
C2450      C2453   1.436       .  S
C2451      C2452   1.397       .  A
C2451      H2463   1.084       .  S
C2452      H2464   1.081       .  S
C2453      C2454   1.204       .  T
C2454      C2455   1.436       .  S
C2455      C2456   1.401       .  A
C2455      C2460   1.399       .  A
C2456      C2457   1.399       .  A
C2456      H2465   1.083       .  S
C2457      C2458   1.403       .  A
C2457      H2466   1.083       .  S
C2458      C2459   1.402       .  A
C2459      C2460   1.394       .  A
C2459      H2467   1.083       .  S
C2460      H2468   1.084       .  S
C2469      C2470   1.408       .  A
C2469      C2474   1.409       .  A
C2470      C2471   1.395       .  A
C2470      H2483   1.081       .  S
C2471      C2472   1.397       .  A
C2471      H2484   1.084       .  S
C2472      C2473   1.399       .  A
C2472      C2475   1.437       .  S
C2473      C2474   1.400       .  A
C2473      H2485   1.083       .  S
C2474      H2486   1.081       .  S
C2475      C2476   1.205   1_556  T
C2476      C2477   1.438       .  S
C2477      C2478   1.399       .  A
C2477      C2482   1.399       .  A
C2478      C2479   1.400       .  A
C2478      H2487   1.083       .  S
C2479      C2480   1.408       .  A
C2479      H2488   1.082       .  S
C2480      C2481   1.407       .  A
C2481      C2482   1.396       .  A
C2481      H2489   1.082       .  S
C2482      H2490   1.084       .  S
C2491      C2492   1.407       .  A
C2491      C2496   1.409       .  A
C2492      C2493   1.398       .  A
C2492      H2505   1.082       .  S
C2493      C2494   1.399       .  A
C2493      H2506   1.084       .  S
C2494      C2495   1.400       .  A
C2494      C2497   1.442       .  S
C2495      C2496   1.401       .  A
C2495      H2507   1.083       .  S
C2496      H2508   1.082       .  S
C2497      C2498   1.207       .  T
C2498      C2499   1.442       .  S
C2499      C2500   1.402       .  A
C2499      C2504   1.400       .  A
C2500      C2501   1.401       .  A
C2500      H2509   1.083       .  S
C2501      C2502   1.404       .  A
C2501      H2510   1.083       .  S
C2502      C2503   1.403       .  A
C2503      C2504   1.397       .  A
C2503      H2511   1.083       .  S
C2504      H2512   1.084       .  S
C2513      C2514   1.410       .  A
C2513      C2518   1.408       .  A
C2514      C2515   1.400       .  A
C2514      H2527   1.081       .  S
C2515      C2516   1.399       .  A
C2515      H2528   1.084       .  S
C2516      C2517   1.399       .  A
C2516      C2519   1.441       .  S
C2517      C2518   1.398       .  A
C2517      H2529   1.084       .  S
C2518      H2530   1.081       .  S
C2519      C2520   1.207       .  T
C2520      C2521   1.441       .  S
C2521      C2522   1.399       .  A
C2521      C2526   1.403       .  A
C2522      C2523   1.395       .  A
C2522      H2531   1.084       .  S
C2523      C2524   1.403       .  A
C2523      H2532   1.083       .  S
C2524      C2525   1.404       .  A
C2525      C2526   1.402       .  A
C2525      H2533   1.083       .  S
C2526      H2534   1.083       .  S
C2535      C2536   1.409       .  A
C2535      C2540   1.409       .  A
C2536      C2537   1.396       .  A
C2536      H2549   1.080       .  S
C2537      C2538   1.397       .  A
C2537      H2550   1.084       .  S
C2538      C2539   1.398       .  A
C2538      C2541   1.437       .  S
C2539      C2540   1.399       .  A
C2539      H2551   1.083       .  S
C2540      H2552   1.081       .  S
C2541      C2542   1.204       .  T
C2542      C2543   1.437       .  S
C2543      C2544   1.399       .  A
C2543      C2548   1.397       .  A
C2544      C2545   1.399       .  A
C2544      H2553   1.083       .  S
C2545      C2546   1.409       .  A
C2545      H2554   1.081       .  S
C2546      C2547   1.409       .  A
C2547      C2548   1.395       .  A
C2547      H2555   1.080       .  S
C2548      H2556   1.084       .  S
C2557      C2558   1.409       .  A
C2557      C2562   1.408       .  A
C2558      C2559   1.397       .  A
C2558      H2571   1.081       .  S
C2559      C2560   1.397       .  A
C2559      H2572   1.084       .  S
C2560      C2561   1.399       .  A
C2560      C2563   1.439       .  S
C2561      C2562   1.399       .  A
C2561      H2573   1.084       .  S
C2562      H2574   1.081       .  S
C2563      C2564   1.205       .  T
C2564      C2565   1.438       .  S
C2565      C2566   1.398       .  A
C2565      C2570   1.403       .  A
C2566      C2567   1.394       .  A
C2566      H2575   1.084       .  S
C2567      C2568   1.403       .  A
C2567      H2576   1.083       .  S
C2568      C2569   1.403       .  A
C2569      C2570   1.401       .  A
C2569      H2577   1.083       .  S
C2570      H2578   1.083       .  S
C2579      C2580   1.407       .  A
C2579      C2584   1.408       .  A
C2580      C2581   1.398       .  A
C2580      H2593   1.082       .  S
C2581      C2582   1.399       .  A
C2581      H2594   1.084       .  S
C2582      C2583   1.398       .  A
C2582      C2585   1.437       .  S
C2583      C2584   1.398       .  A
C2583      H2595   1.084       .  S
C2584      H2596   1.081       .  S
C2585      C2586   1.204       .  T
C2586      C2587   1.437       .  S
C2587      C2588   1.402       .  A
C2587      C2592   1.399       .  A
C2588      C2589   1.399       .  A
C2588      H2597   1.083       .  S
C2589      C2590   1.404       .  A
C2589      H2598   1.083       .  S
C2590      C2591   1.403       .  A
C2591      C2592   1.394       .  A
C2591      H2599   1.083       .  S
C2592      H2600   1.084       .  S
C2601      C2602   1.410       .  A
C2601      C2606   1.407       .  A
C2602      C2603   1.401       .  A
C2602      H2615   1.082       .  S
C2603      C2604   1.400       .  A
C2603      H2616   1.083       .  S
C2604      C2605   1.398       .  A
C2604      C2607   1.439       .  S
C2605      C2606   1.395       .  A
C2605      H2617   1.084       .  S
C2606      H2618   1.081       .  S
C2607      C2608   1.206   1_655  T
C2608      C2609   1.439       .  S
C2609      C2610   1.398       .  A
C2609      C2614   1.399       .  A
C2610      C2611   1.396       .  A
C2610      H2619   1.084       .  S
C2611      C2612   1.408       .  A
C2611      H2620   1.081       .  S
C2612      C2613   1.410       .  A
C2613      C2614   1.400       .  A
C2613      H2621   1.081       .  S
C2614      H2622   1.083       .  S
C2623      C2624   1.409       .  A
C2623      C2628   1.408       .  A
C2624      C2625   1.398       .  A
C2624      H2637   1.081       .  S
C2625      C2626   1.397       .  A
C2625      H2638   1.084       .  S
C2626      C2627   1.398       .  A
C2626      C2629   1.436       .  S
C2627      C2628   1.396       .  A
C2627      H2639   1.084       .  S
C2628      H2640   1.081       .  S
C2629      C2630   1.204       .  T
C2630      C2631   1.436       .  S
C2631      C2632   1.399       .  A
C2631      C2636   1.401       .  A
C2632      C2633   1.394       .  A
C2632      H2641   1.084       .  S
C2633      C2634   1.403       .  A
C2633      H2642   1.083       .  S
C2634      C2635   1.404       .  A
C2635      C2636   1.399       .  A
C2635      H2643   1.083       .  S
C2636      H2644   1.083       .  S
C2645      C2646   1.408       .  A
C2645      C2650   1.410       .  A
C2646      C2647   1.399       .  A
C2646      H2659   1.081       .  S
C2647      C2648   1.400       .  A
C2647      H2660   1.084       .  S
C2648      C2649   1.398       .  A
C2648      C2651   1.441       .  S
C2649      C2650   1.399       .  A
C2649      H2661   1.084       .  S
C2650      H2662   1.081       .  S
C2651      C2652   1.207       .  T
C2652      C2653   1.441       .  S
C2653      C2654   1.403       .  A
C2653      C2658   1.399       .  A
C2654      C2655   1.402       .  A
C2654      H2663   1.083       .  S
C2655      C2656   1.405       .  A
C2655      H2664   1.083       .  S
C2656      C2657   1.404       .  A
C2657      C2658   1.395       .  A
C2657      H2665   1.083       .  S
C2658      H2666   1.084       .  S
C2667      C2668   1.407       .  A
C2667      C2672   1.408       .  A
C2668      C2669   1.395       .  A
C2668      H2681   1.082       .  S
C2669      C2670   1.398       .  A
C2669      H2682   1.084       .  S
C2670      C2671   1.400       .  A
C2670      C2673   1.437       .  S
C2671      C2672   1.400       .  A
C2671      H2683   1.083       .  S
C2672      H2684   1.082       .  S
C2673      C2674   1.205       .  T
C2674      C2675   1.437       .  S
C2675      C2676   1.399       .  A
C2675      C2680   1.399       .  A
C2676      C2677   1.398       .  A
C2676      H2685   1.084       .  S
C2677      C2678   1.407       .  A
C2677      H2686   1.082       .  S
C2678      C2679   1.406       .  A
C2679      C2680   1.397       .  A
C2679      H2687   1.082       .  S
C2680      H2688   1.084       .  S
C2689      C2690   1.405       .  A
C2689      C2694   1.404       .  A
C2690      C2691   1.400       .  A
C2690      H2703   1.083       .  S
C2691      C2692   1.402       .  A
C2691      H2704   1.083       .  S
C2692      C2693   1.399       .  A
C2692      C2695   1.438       .  S
C2693      C2694   1.395       .  A
C2693      H2705   1.084       .  S
C2694      H2706   1.083       .  S
C2695      C2696   1.205       .  T
C2696      C2697   1.438       .  S
C2697      C2698   1.399       .  A
C2697      C2702   1.398       .  A
C2698      C2699   1.398       .  A
C2698      H2707   1.084       .  S
C2699      C2700   1.409       .  A
C2699      H2708   1.081       .  S
C2700      C2701   1.409       .  A
C2701      C2702   1.398       .  A
C2701      H2709   1.081       .  S
C2702      H2710   1.084       .  S
C2711      C2712   1.408       .  A
C2711      C2716   1.407       .  A
C2712      C2713   1.400       .  A
C2712      H2725   1.082       .  S
C2713      C2714   1.400       .  A
C2713      H2726   1.084       .  S
C2714      C2715   1.400       .  A
C2714      C2717   1.443       .  S
C2715      C2716   1.400       .  A
C2715      H2727   1.083       .  S
C2716      H2728   1.082       .  S
C2717      C2718   1.208       .  T
C2718      C2719   1.442       .  S
C2719      C2720   1.400       .  A
C2719      C2724   1.402       .  A
C2720      C2721   1.397       .  A
C2720      H2729   1.084       .  S
C2721      C2722   1.404       .  A
C2721      H2730   1.083       .  S
C2722      C2723   1.405       .  A
C2723      C2724   1.401       .  A
C2723      H2731   1.083       .  S
C2724      H2732   1.083       .  S
C2733      C2734   1.408       .  A
C2733      C2738   1.409       .  A
C2734      C2735   1.396       .  A
C2734      H2747   1.081       .  S
C2735      C2736   1.398       .  A
C2735      H2748   1.084       .  S
C2736      C2737   1.398       .  A
C2736      C2739   1.438       .  S
C2737      C2738   1.399       .  A
C2737      H2749   1.083       .  S
C2738      H2750   1.081       .  S
C2739      C2740   1.205   1_655  T
C2740      C2741   1.438       .  S
C2741      C2742   1.400       .  A
C2741      C2746   1.397       .  A
C2742      C2743   1.400       .  A
C2742      H2751   1.083       .  S
C2743      C2744   1.408       .  A
C2743      H2752   1.082       .  S
C2744      C2745   1.407       .  A
C2745      C2746   1.395       .  A
C2745      H2753   1.081       .  S
C2746      H2754   1.084       .  S
C2755      C2756   1.408       .  A
C2755      C2760   1.410       .  A
C2756      C2757   1.399       .  A
C2756      H2769   1.081       .  S
C2757      C2758   1.399       .  A
C2757      H2770   1.084       .  S
C2758      C2759   1.398       .  A
C2758      C2761   1.440       .  S
C2759      C2760   1.399       .  A
C2759      H2771   1.084       .  S
C2760      H2772   1.081       .  S
C2761      C2762   1.206       .  T
C2762      C2763   1.440       .  S
C2763      C2764   1.403       .  A
C2763      C2768   1.399       .  A
C2764      C2765   1.401       .  A
C2764      H2773   1.083       .  S
C2765      C2766   1.404       .  A
C2765      H2774   1.083       .  S
C2766      C2767   1.404       .  A
C2767      C2768   1.395       .  A
C2767      H2775   1.083       .  S
C2768      H2776   1.083       .  S
C2777      C2778   1.408       .  A
C2777      C2782   1.410       .  A
C2778      C2779   1.398       .  A
C2778      H2791   1.081       .  S
C2779      C2780   1.399       .  A
C2779      H2792   1.084       .  S
C2780      C2781   1.398       .  A
C2780      C2783   1.441       .  S
C2781      C2782   1.399       .  A
C2781      H2793   1.083       .  S
C2782      H2794   1.081       .  S
C2783      C2784   1.206       .  T
C2784      C2785   1.440       .  S
C2785      C2786   1.402       .  A
C2785      C2790   1.399       .  A
C2786      C2787   1.401       .  A
C2786      H2795   1.083       .  S
C2787      C2788   1.405       .  A
C2787      H2796   1.083       .  S
C2788      C2789   1.404       .  A
C2789      C2790   1.396       .  A
C2789      H2797   1.083       .  S
C2790      H2798   1.083       .  S
C2799      C2800   1.408       .  A
C2799      C2804   1.408       .  A
C2800      C2801   1.400       .  A
C2800      H2813   1.082       .  S
C2801      C2802   1.399       .  A
C2801      H2814   1.083       .  S
C2802      C2803   1.398       .  A
C2802      C2805   1.438       .  S
C2803      C2804   1.396       .  A
C2803      H2815   1.084       .  S
C2804      H2816   1.081       .  S
C2805      C2806   1.205   1_556  T
C2806      C2807   1.438       .  S
C2807      C2808   1.398       .  A
C2807      C2812   1.399       .  A
C2808      C2809   1.396       .  A
C2808      H2817   1.084       .  S
C2809      C2810   1.408       .  A
C2809      H2818   1.081       .  S
C2810      C2811   1.409       .  A
C2811      C2812   1.400       .  A
C2811      H2819   1.081       .  S
C2812      H2820   1.084       .  S
C2821      C2822   1.407       .  A
C2821      C2826   1.408       .  A
C2822      C2823   1.397       .  A
C2822      H2835   1.082       .  S
C2823      C2824   1.399       .  A
C2823      H2836   1.084       .  S
C2824      C2825   1.399       .  A
C2824      C2827   1.438       .  S
C2825      C2826   1.399       .  A
C2825      H2837   1.084       .  S
C2826      H2838   1.082       .  S
C2827      C2828   1.205       .  T
C2828      C2829   1.438       .  S
C2829      C2830   1.401       .  A
C2829      C2834   1.399       .  A
C2830      C2831   1.399       .  A
C2830      H2839   1.083       .  S
C2831      C2832   1.405       .  A
C2831      H2840   1.083       .  S
C2832      C2833   1.403       .  A
C2833      C2834   1.395       .  A
C2833      H2841   1.083       .  S
C2834      H2842   1.084       .  S
C2843      C2844   1.403       .  A
C2843      C2848   1.404       .  A
C2844      C2845   1.394       .  A
C2844      H2857   1.083       .  S
C2845      C2846   1.399       .  A
C2845      H2858   1.084       .  S
C2846      C2847   1.401       .  A
C2846      C2849   1.436       .  S
C2847      C2848   1.399       .  A
C2847      H2859   1.083       .  S
C2848      H2860   1.083       .  S
C2849      C2850   1.204       .  T
C2850      C2851   1.437       .  S
C2851      C2852   1.399       .  A
C2851      C2856   1.397       .  A
C2852      C2853   1.398       .  A
C2852      H2861   1.084       .  S
C2853      C2854   1.407       .  A
C2853      H2862   1.082       .  S
C2854      C2855   1.408       .  A
C2855      C2856   1.397       .  A
C2855      H2863   1.081       .  S
C2856      H2864   1.084       .  S
C2865      C2866   1.409       .  A
C2865      C2870   1.408       .  A
C2866      C2867   1.401       .  A
C2866      H2879   1.081       .  S
C2867      C2868   1.399       .  A
C2867      H2880   1.083       .  S
C2868      C2869   1.397       .  A
C2868      C2871   1.439       .  S
C2869      C2870   1.395       .  A
C2869      H2881   1.084       .  S
C2870      H2882   1.081       .  S
C2871      C2872   1.206   1_655  T
C2872      C2873   1.439       .  S
C2873      C2874   1.399       .  A
C2873      C2878   1.399       .  A
C2874      C2875   1.397       .  A
C2874      H2883   1.084       .  S
C2875      C2876   1.407       .  A
C2875      H2884   1.082       .  S
C2876      C2877   1.408       .  A
C2877      C2878   1.400       .  A
C2877      H2885   1.082       .  S
C2878      H2886   1.084       .  S
C2887      C2888   1.404       .  A
C2887      C2892   1.403       .  A
C2888      C2889   1.399       .  A
C2888      H2901   1.083       .  S
C2889      C2890   1.401       .  A
C2889      H2902   1.083       .  S
C2890      C2891   1.399       .  A
C2890      C2893   1.435       .  S
C2891      C2892   1.394       .  A
C2891      H2903   1.084       .  S
C2892      H2904   1.083       .  S
C2893      C2894   1.204       .  T
C2894      C2895   1.436       .  S
C2895      C2896   1.398       .  A
C2895      C2900   1.398       .  A
C2896      C2897   1.396       .  A
C2896      H2905   1.084       .  S
C2897      C2898   1.407       .  A
C2897      H2906   1.081       .  S
C2898      C2899   1.409       .  A
C2899      C2900   1.398       .  A
C2899      H2907   1.081       .  S
C2900      H2908   1.084       .  S
C2909      C2910   1.409       .  A
C2909      C2914   1.408       .  A
C2910      C2911   1.396       .  A
C2910      H2923   1.081       .  S
C2911      C2912   1.397       .  A
C2911      H2924   1.084       .  S
C2912      C2913   1.399       .  A
C2912      C2915   1.437       .  S
C2913      C2914   1.398       .  A
C2913      H2925   1.084       .  S
C2914      H2926   1.081       .  S
C2915      C2916   1.204       .  T
C2916      C2917   1.436       .  S
C2917      C2918   1.398       .  A
C2917      C2922   1.402       .  A
C2918      C2919   1.394       .  A
C2918      H2927   1.084       .  S
C2919      C2920   1.404       .  A
C2919      H2928   1.083       .  S
C2920      C2921   1.405       .  A
C2921      C2922   1.400       .  A
C2921      H2929   1.083       .  S
C2922      H2930   1.083       .  S
C2931      C2932   1.407       .  A
C2931      C2936   1.407       .  A
C2932      C2933   1.396       .  A
C2932      H2945   1.082       .  S
C2933      C2934   1.398       .  A
C2933      H2946   1.084       .  S
C2934      C2935   1.400       .  A
C2934      C2937   1.439       .  S
C2935      C2936   1.401       .  A
C2935      H2947   1.083       .  S
C2936      H2948   1.082       .  S
C2937      C2938   1.206       .  T
C2938      C2939   1.439       .  S
C2939      C2940   1.399       .  A
C2939      C2944   1.399       .  A
C2940      C2941   1.400       .  A
C2940      H2949   1.084       .  S
C2941      C2942   1.408       .  A
C2941      H2950   1.082       .  S
C2942      C2943   1.407       .  A
C2943      C2944   1.397       .  A
C2943      H2951   1.082       .  S
C2944      H2952   1.084       .  S
C2953      C2954   1.406       .  A
C2953      C2958   1.408       .  A
C2954      C2955   1.395       .  A
C2954      H2967   1.083       .  S
C2955      C2956   1.398       .  A
C2955      H2968   1.084       .  S
C2956      C2957   1.400       .  A
C2956      C2959   1.438       .  S
C2957      C2958   1.401       .  A
C2957      H2969   1.083       .  S
C2958      H2970   1.083       .  S
C2959      C2960   1.205       .  T
C2960      C2961   1.438       .  S
C2961      C2962   1.399       .  A
C2961      C2966   1.398       .  A
C2962      C2963   1.400       .  A
C2962      H2971   1.083       .  S
C2963      C2964   1.409       .  A
C2963      H2972   1.081       .  S
C2964      C2965   1.407       .  A
C2965      C2966   1.395       .  A
C2965      H2973   1.081       .  S
C2966      H2974   1.084       .  S
C2975      C2976   1.407       .  A
C2975      C2980   1.408       .  A
C2976      C2977   1.396       .  A
C2976      H2989   1.083       .  S
C2977      C2978   1.399       .  A
C2977      H2990   1.084       .  S
C2978      C2979   1.400       .  A
C2978      C2981   1.439       .  S
C2979      C2980   1.400       .  A
C2979      H2991   1.083       .  S
C2980      H2992   1.083       .  S
C2981      C2982   1.205       .  T
C2982      C2983   1.439       .  S
C2983      C2984   1.400       .  A
C2983      C2988   1.397       .  A
C2984      C2985   1.401       .  A
C2984      H2993   1.083       .  S
C2985      C2986   1.409       .  A
C2985      H2994   1.082       .  S
C2986      C2987   1.408       .  A
C2987      C2988   1.394       .  A
C2987      H2995   1.081       .  S
C2988      H2996   1.084       .  S
C2997      C2998   1.406       .  A
C2997      C3002   1.408       .  A
C2998      C2999   1.396       .  A
C2998      H3011   1.083       .  S
C2999      C3000   1.399       .  A
C2999      H3012   1.084       .  S
C3000      C3001   1.401       .  A
C3000      C3003   1.441       .  S
C3001      C3002   1.402       .  A
C3001      H3013   1.083       .  S
C3002      H3014   1.083       .  S
C3003      C3004   1.207   1_565  T
C3004      C3005   1.441       .  S
C3005      C3006   1.400       .  A
C3005      C3010   1.397       .  A
C3006      C3007   1.402       .  A
C3006      H3015   1.083       .  S
C3007      C3008   1.409       .  A
C3007      H3016   1.081       .  S
C3008      C3009   1.409       .  A
C3009      C3010   1.396       .  A
C3009      H3017   1.081       .  S
C3010      H3018   1.084       .  S
C3019      C3020   1.408       .  A
C3019      C3024   1.407       .  A
C3020      C3021   1.401       .  A
C3020      H3033   1.083       .  S
C3021      C3022   1.400       .  A
C3021      H3034   1.083       .  S
C3022      C3023   1.399       .  A
C3022      C3025   1.439       .  S
C3023      C3024   1.396       .  A
C3023      H3035   1.084       .  S
C3024      H3036   1.083       .  S
C3025      C3026   1.206       .  T
C3026      C3027   1.439   1_565  S
C3027      C3028   1.397       .  A
C3027      C3032   1.400       .  A
C3028      C3029   1.395       .  A
C3028      H3037   1.084       .  S
C3029      C3030   1.408       .  A
C3029      H3038   1.081       .  S
C3030      C3031   1.409       .  A
C3031      C3032   1.401       .  A
C3031      H3039   1.081       .  S
C3032      H3040   1.083       .  S
C3041      C3042   1.407       .  A
C3041      C3046   1.408       .  A
C3042      C3043   1.397       .  A
C3042      H3055   1.083       .  S
C3043      C3044   1.399       .  A
C3043      H3056   1.084       .  S
C3044      C3045   1.400       .  A
C3044      C3047   1.440       .  S
C3045      C3046   1.400       .  A
C3045      H3057   1.083       .  S
C3046      H3058   1.083       .  S
C3047      C3048   1.206       .  T
C3048      C3049   1.440       .  S
C3049      C3050   1.401       .  A
C3049      C3054   1.398       .  A
C3050      C3051   1.401       .  A
C3050      H3059   1.083       .  S
C3051      C3052   1.407       .  A
C3051      H3060   1.082       .  S
C3052      C3053   1.407       .  A
C3053      C3054   1.396       .  A
C3053      H3061   1.082       .  S
C3054      H3062   1.084       .  S
C3063      C3064   1.407       .  A
C3063      C3068   1.407       .  A
C3064      C3065   1.398       .  A
C3064      H3077   1.083       .  S
C3065      C3066   1.398       .  A
C3065      H3078   1.083       .  S
C3066      C3067   1.399       .  A
C3066      C3069   1.436       .  S
C3067      C3068   1.396       .  A
C3067      H3079   1.084       .  S
C3068      H3080   1.083       .  S
C3069      C3070   1.203       .  T
C3070      C3071   1.435   1_565  S
C3071      C3072   1.397       .  A
C3071      C3076   1.400       .  A
C3072      C3073   1.394       .  A
C3072      H3081   1.084       .  S
C3073      C3074   1.406       .  A
C3073      H3082   1.082       .  S
C3074      C3075   1.406       .  A
C3075      C3076   1.399       .  A
C3075      H3083   1.083       .  S
C3076      H3084   1.083       .  S
C3085      C3086   1.406       .  A
C3085      C3090   1.408       .  A
C3086      C3087   1.394       .  A
C3086      H3099   1.083       .  S
C3087      C3088   1.398       .  A
C3087      H3100   1.084       .  S
C3088      C3089   1.400       .  A
C3088      C3091   1.437       .  S
C3089      C3090   1.401       .  A
C3089      H3101   1.083       .  S
C3090      H3102   1.083       .  S
C3091      C3092   1.205       .  T
C3092      C3093   1.438       .  S
C3093      C3094   1.399       .  A
C3093      C3098   1.397       .  A
C3094      C3095   1.401       .  A
C3094      H3103   1.083       .  S
C3095      C3096   1.410       .  A
C3095      H3104   1.081       .  S
C3096      C3097   1.408       .  A
C3097      C3098   1.395       .  A
C3097      H3105   1.081       .  S
C3098      H3106   1.084       .  S
C3107      C3108   1.410       .  A
C3107      C3112   1.408       .  A
C3108      C3109   1.402       .  A
C3108      H3121   1.081       .  S
C3109      C3110   1.400       .  A
C3109      H3122   1.083       .  S
C3110      C3111   1.398       .  A
C3110      C3113   1.441   1_545  S
C3111      C3112   1.396       .  A
C3111      H3123   1.084       .  S
C3112      H3124   1.080       .  S
C3113      C3114   1.207       .  T
C3114      C3115   1.441       .  S
C3115      C3116   1.399       .  A
C3115      C3120   1.401       .  A
C3116      C3117   1.396       .  A
C3116      H3125   1.084       .  S
C3117      C3118   1.407       .  A
C3117      H3126   1.083       .  S
C3118      C3119   1.408       .  A
C3119      C3120   1.402       .  A
C3119      H3127   1.083       .  S
C3120      H3128   1.083       .  S
C3129      C3130   1.407       .  A
C3129      C3134   1.408       .  A
C3130      C3131   1.396       .  A
C3130      H3143   1.083       .  S
C3131      C3132   1.399       .  A
C3131      H3144   1.084       .  S
C3132      C3133   1.400       .  A
C3132      C3135   1.439       .  S
C3133      C3134   1.400       .  A
C3133      H3145   1.083       .  S
C3134      H3146   1.083       .  S
C3135      C3136   1.206       .  T
C3136      C3137   1.439       .  S
C3137      C3138   1.401       .  A
C3137      C3142   1.397       .  A
C3138      C3139   1.402       .  A
C3138      H3147   1.083       .  S
C3139      C3140   1.409       .  A
C3139      H3148   1.082       .  S
C3140      C3141   1.408       .  A
C3141      C3142   1.394       .  A
C3141      H3149   1.081       .  S
C3142      H3150   1.084       .  S
C3151      C3152   1.409       .  A
C3151      C3156   1.409       .  A
C3152      C3153   1.401       .  A
C3152      H3165   1.082       .  S
C3153      C3154   1.400       .  A
C3153      H3166   1.083       .  S
C3154      C3155   1.398       .  A
C3154      C3157   1.441       .  S
C3155      C3156   1.396       .  A
C3155      H3167   1.084       .  S
C3156      H3168   1.081       .  S
C3157      C3158   1.207       .  T
C3158      C3159   1.441       .  S
C3159      C3160   1.399       .  A
C3159      C3164   1.400       .  A
C3160      C3161   1.397       .  A
C3160      H3169   1.084       .  S
C3161      C3162   1.407       .  A
C3161      H3170   1.083       .  S
C3162      C3163   1.408       .  A
C3163      C3164   1.401       .  A
C3163      H3171   1.083       .  S
C3164      H3172   1.083       .  S
C3173      C3174   1.409       .  A
C3173      C3178   1.406       .  A
C3174      C3175   1.401       .  A
C3174      H3187   1.083       .  S
C3175      C3176   1.400       .  A
C3175      H3188   1.083       .  S
C3176      C3177   1.399       .  A
C3176      C3179   1.439       .  S
C3177      C3178   1.396       .  A
C3177      H3189   1.084       .  S
C3178      H3190   1.083       .  S
C3179      C3180   1.205       .  T
C3180      C3181   1.438   1_565  S
C3181      C3182   1.398       .  A
C3181      C3186   1.400       .  A
C3182      C3183   1.395       .  A
C3182      H3191   1.084       .  S
C3183      C3184   1.406       .  A
C3183      H3192   1.081       .  S
C3184      C3185   1.408       .  A
C3185      C3186   1.401       .  A
C3185      H3193   1.082       .  S
C3186      H3194   1.083       .  S
C3195      C3196   1.407       .  A
C3195      C3200   1.408       .  A
C3196      C3197   1.396       .  A
C3196      H3209   1.083       .  S
C3197      C3198   1.399       .  A
C3197      H3210   1.084       .  S
C3198      C3199   1.400       .  A
C3198      C3201   1.439       .  S
C3199      C3200   1.401       .  A
C3199      H3211   1.083       .  S
C3200      H3212   1.083       .  S
C3201      C3202   1.206       .  T
C3202      C3203   1.439   1_565  S
C3203      C3204   1.401       .  A
C3203      C3208   1.398       .  A
C3204      C3205   1.401       .  A
C3204      H3213   1.083       .  S
C3205      C3206   1.407       .  A
C3205      H3214   1.082       .  S
C3206      C3207   1.406       .  A
C3207      C3208   1.396       .  A
C3207      H3215   1.082       .  S
C3208      H3216   1.084   1_545  S
C3217      C3218   1.408       .  A
C3217      C3222   1.407       .  A
C3218      C3219   1.401       .  A
C3218      H3231   1.083       .  S
C3219      C3220   1.400       .  A
C3219      H3232   1.083       .  S
C3220      C3221   1.398       .  A
C3220      C3223   1.439       .  S
C3221      C3222   1.395       .  A
C3221      H3233   1.084       .  S
C3222      H3234   1.083       .  S
C3223      C3224   1.205       .  T
C3224      C3225   1.439       .  S
C3225      C3226   1.398       .  A
C3225      C3230   1.400       .  A
C3226      C3227   1.395       .  A
C3226      H3235   1.084       .  S
C3227      C3228   1.407       .  A
C3227      H3236   1.082       .  S
C3228      C3229   1.408       .  A
C3229      C3230   1.400       .  A
C3229      H3237   1.082       .  S
C3230      H3238   1.083       .  S
C3239      C3240   1.409       .  A
C3239      C3244   1.408       .  A
C3240      C3241   1.401       .  A
C3240      H3253   1.081       .  S
C3241      C3242   1.400       .  A
C3241      H3254   1.083       .  S
C3242      C3243   1.398       .  A
C3242      C3245   1.440       .  S
C3243      C3244   1.396       .  A
C3243      H3255   1.084       .  S
C3244      H3256   1.081       .  S
C3245      C3246   1.206       .  T
C3246      C3247   1.440       .  S
C3247      C3248   1.398       .  A
C3247      C3252   1.401       .  A
C3248      C3249   1.396       .  A
C3248      H3257   1.084       .  S
C3249      C3250   1.407       .  A
C3249      H3258   1.083       .  S
C3250      C3251   1.408       .  A
C3251      C3252   1.401       .  A
C3251      H3259   1.083       .  S
C3252      H3260   1.083       .  S
C3261      C3262   1.408       .  A
C3261      C3266   1.407       .  A
C3262      C3263   1.403       .  A
C3262      H3275   1.083       .  S
C3263      C3264   1.401       .  A
C3263      H3276   1.083       .  S
C3264      C3265   1.398       .  A
C3264      C3267   1.440       .  S
C3265      C3266   1.394       .  A
C3265      H3277   1.084       .  S
C3266      H3278   1.083       .  S
C3267      C3268   1.206       .  T
C3268      C3269   1.440       .  S
C3269      C3270   1.398       .  A
C3269      C3274   1.399       .  A
C3270      C3271   1.396       .  A
C3270      H3279   1.084       .  S
C3271      C3272   1.407       .  A
C3271      H3280   1.081       .  S
C3272      C3273   1.409       .  A
C3273      C3274   1.401       .  A
C3273      H3281   1.082       .  S
C3274      H3282   1.083       .  S
C3283      C3284   1.409       .  A
C3283      C3288   1.410       .  A
C3284      C3285   1.396       .  A
C3284      H3297   1.081       .  S
C3285      C3286   1.398       .  A
C3285      H3298   1.084       .  S
C3286      C3287   1.400       .  A
C3286      C3289   1.441       .  S
C3287      C3288   1.402       .  A
C3287      H3299   1.083       .  S
C3288      H3300   1.081       .  S
C3289      C3290   1.207       .  T
C3290      C3291   1.441       .  S
C3291      C3292   1.401       .  A
C3291      C3296   1.398       .  A
C3292      C3293   1.402       .  A
C3292      H3301   1.083       .  S
C3293      C3294   1.408       .  A
C3293      H3302   1.083       .  S
C3294      C3295   1.407       .  A
C3295      C3296   1.396       .  A
C3295      H3303   1.083       .  S
C3296      H3304   1.084       .  S
C3305      C3306   1.406       .  A
C3305      C3310   1.408       .  A
C3306      C3307   1.395       .  A
C3306      H3319   1.082       .  S
C3307      C3308   1.398       .  A
C3307      H3320   1.084       .  S
C3308      C3309   1.400       .  A
C3308      C3311   1.438       .  S
C3309      C3310   1.401       .  A
C3309      H3321   1.083       .  S
C3310      H3322   1.082       .  S
C3311      C3312   1.205       .  T
C3312      C3313   1.438       .  S
C3313      C3314   1.400       .  A
C3313      C3318   1.398       .  A
C3314      C3315   1.401       .  A
C3314      H3323   1.083       .  S
C3315      C3316   1.408       .  A
C3315      H3324   1.083       .  S
C3316      C3317   1.407       .  A
C3317      C3318   1.395       .  A
C3317      H3325   1.083       .  S
C3318      H3326   1.084       .  S
C3327      C3328   1.407       .  A
C3327      C3332   1.408       .  A
C3328      C3329   1.396       .  A
C3328      H3341   1.082       .  S
C3329      C3330   1.399       .  A
C3329      H3342   1.084   1_545  S
C3330      C3331   1.399       .  A
C3330      C3333   1.438   1_545  S
C3331      C3332   1.400       .  A
C3331      H3343   1.083       .  S
C3332      H3344   1.082       .  S
C3333      C3334   1.205       .  T
C3334      C3335   1.438       .  S
C3335      C3336   1.401       .  A
C3335      C3340   1.397       .  A
C3336      C3337   1.402       .  A
C3336      H3345   1.083       .  S
C3337      C3338   1.408       .  A
C3337      H3346   1.083       .  S
C3338      C3339   1.407       .  A
C3339      C3340   1.394       .  A
C3339      H3347   1.083       .  S
C3340      H3348   1.084       .  S
C3349      C3350   1.407       .  A
C3349      C3354   1.407       .  A
C3350      C3351   1.401       .  A
C3350      H3363   1.083       .  S
C3351      C3352   1.400       .  A
C3351      H3364   1.083       .  S
C3352      C3353   1.398       .  A
C3352      C3355   1.437       .  S
C3353      C3354   1.395       .  A
C3353      H3365   1.084       .  S
C3354      H3366   1.083       .  S
C3355      C3356   1.205       .  T
C3356      C3357   1.437       .  S
C3357      C3358   1.398       .  A
C3357      C3362   1.399       .  A
C3358      C3359   1.396       .  A
C3358      H3367   1.084       .  S
C3359      C3360   1.407       .  A
C3359      H3368   1.082       .  S
C3360      C3361   1.407       .  A
C3361      C3362   1.400       .  A
C3361      H3369   1.082       .  S
C3362      H3370   1.083       .  S
C3371      C3372   1.408       .  A
C3371      C3376   1.407       .  A
C3372      C3373   1.402       .  A
C3372      H3385   1.083       .  S
C3373      C3374   1.401       .  A
C3373      H3386   1.083       .  S
C3374      C3375   1.399       .  A
C3374      C3377   1.441       .  S
C3375      C3376   1.396       .  A
C3375      H3387   1.084       .  S
C3376      H3388   1.083       .  S
C3377      C3378   1.207       .  T
C3378      C3379   1.441   1_565  S
C3379      C3380   1.398       .  A
C3379      C3384   1.401       .  A
C3380      C3381   1.396       .  A
C3380      H3389   1.084       .  S
C3381      C3382   1.407       .  A
C3381      H3390   1.082       .  S
C3382      C3383   1.408       .  A
C3383      C3384   1.402       .  A
C3383      H3391   1.082       .  S
C3384      H3392   1.083       .  S
C3393      C3394   1.408       .  A
C3393      C3398   1.408       .  A
C3394      C3395   1.404       .  A
C3394      H3407   1.083       .  S
C3395      C3396   1.402       .  A
C3395      H3408   1.083       .  S
C3396      C3397   1.399       .  A
C3396      C3399   1.444       .  S
C3397      C3398   1.397       .  A
C3397      H3409   1.084       .  S
C3398      H3410   1.083       .  S
C3399      C3400   1.209       .  T
C3400      C3401   1.444       .  S
C3401      C3402   1.398       .  A
C3401      C3406   1.401       .  A
C3402      C3403   1.397       .  A
C3402      H3411   1.084       .  S
C3403      C3404   1.409       .  A
C3403      H3412   1.080       .  S
C3404      C3405   1.410       .  A
C3405      C3406   1.403       .  A
C3405      H3413   1.081       .  S
C3406      H3414   1.083       .  S
C3415      C3416   1.407       .  A
C3415      C3420   1.409       .  A
C3416      C3417   1.397       .  A
C3416      H3429   1.083       .  S
C3417      C3418   1.399       .  A
C3417      H3430   1.084       .  S
C3418      C3419   1.400       .  A
C3418      C3421   1.441       .  S
C3419      C3420   1.401       .  A
C3419      H3431   1.083       .  S
C3420      H3432   1.083       .  S
C3421      C3422   1.207       .  T
C3422      C3423   1.441       .  S
C3423      C3424   1.400       .  A
C3423      C3428   1.398       .  A
C3424      C3425   1.402       .  A
C3424      H3433   1.083       .  S
C3425      C3426   1.408       .  A
C3425      H3434   1.082       .  S
C3426      C3427   1.407       .  A
C3427      C3428   1.396       .  A
C3427      H3435   1.082       .  S
C3428      H3436   1.084       .  S
C3437      C3438   1.408       .  A
C3437      C3442   1.407       .  A
C3438      C3439   1.401       .  A
C3438      H3451   1.083       .  S
C3439      C3440   1.400       .  A
C3439      H3452   1.083       .  S
C3440      C3441   1.399       .  A
C3440      C3443   1.441       .  S
C3441      C3442   1.397       .  A
C3441      H3453   1.084       .  S
C3442      H3454   1.083       .  S
C3443      C3444   1.207       .  T
C3444      C3445   1.441       .  S
C3445      C3446   1.397       .  A
C3445      C3450   1.400       .  A
C3446      C3447   1.395       .  A
C3446      H3455   1.084       .  S
C3447      C3448   1.409       .  A
C3447      H3456   1.080       .  S
C3448      C3449   1.409       .  A
C3449      C3450   1.402       .  A
C3449      H3457   1.081       .  S
C3450      H3458   1.083       .  S
C3459      C3460   1.409       .  A
C3459      C3464   1.409       .  A
C3460      C3461   1.396       .  A
C3460      H3473   1.080       .  S
C3461      C3462   1.397       .  A
C3461      H3474   1.084       .  S
C3462      C3463   1.400       .  A
C3462      C3465   1.442       .  S
C3463      C3464   1.402       .  A
C3463      H3475   1.083       .  S
C3464      H3476   1.081       .  S
C3465      C3466   1.207       .  T
C3466      C3467   1.442       .  S
C3467      C3468   1.401       .  A
C3467      C3472   1.399       .  A
C3468      C3469   1.402       .  A
C3468      H3477   1.083       .  S
C3469      C3470   1.407       .  A
C3469      H3478   1.083       .  S
C3470      C3471   1.408       .  A
C3471      C3472   1.397       .  A
C3471      H3479   1.083       .  S
C3472      H3480   1.084       .  S
C3481      C3482   1.407       .  A
C3481      C3486   1.408       .  A
C3482      C3483   1.395       .  A
C3482      H3495   1.083       .  S
C3483      C3484   1.398       .  A
C3483      H3496   1.084       .  S
C3484      C3485   1.400       .  A
C3484      C3487   1.439       .  S
C3485      C3486   1.401       .  A
C3485      H3497   1.083       .  S
C3486      H3498   1.083       .  S
C3487      C3488   1.205       .  T
C3488      C3489   1.439       .  S
C3489      C3490   1.400       .  A
C3489      C3494   1.398       .  A
C3490      C3491   1.401       .  A
C3490      H3499   1.083       .  S
C3491      C3492   1.409       .  A
C3491      H3500   1.082       .  S
C3492      C3493   1.407       .  A
C3493      C3494   1.395       .  A
C3493      H3501   1.081       .  S
C3494      H3502   1.084       .  S
C3503      C3504   1.408       .  A
C3503      C3508   1.406       .  A
C3504      C3505   1.400       .  A
C3504      H3517   1.083       .  S
C3505      C3506   1.400       .  A
C3505      H3518   1.083       .  S
C3506      C3507   1.399       .  A
C3506      C3509   1.437       .  S
C3507      C3508   1.395       .  A
C3507      H3519   1.084       .  S
C3508      H3520   1.083       .  S
C3509      C3510   1.205       .  T
C3510      C3511   1.437       .  S
C3511      C3512   1.397       .  A
C3511      C3516   1.399       .  A
C3512      C3513   1.394       .  A
C3512      H3521   1.084       .  S
C3513      C3514   1.408       .  A
C3513      H3522   1.081       .  S
C3514      C3515   1.409       .  A
C3515      C3516   1.401       .  A
C3515      H3523   1.081       .  S
C3516      H3524   1.083       .  S
C3525      C3526   1.406       .  A
C3525      C3530   1.408       .  A
C3526      C3527   1.395       .  A
C3526      H3539   1.083       .  S
C3527      C3528   1.398       .  A
C3527      H3540   1.084       .  S
C3528      C3529   1.400       .  A
C3528      C3531   1.437       .  S
C3529      C3530   1.399       .  A
C3529      H3541   1.083       .  S
C3530      H3542   1.083       .  S
C3531      C3532   1.204       .  T
C3532      C3533   1.437       .  S
C3533      C3534   1.399       .  A
C3533      C3538   1.398       .  A
C3534      C3535   1.400       .  A
C3534      H3543   1.083       .  S
C3535      C3536   1.408       .  A
C3535      H3544   1.082       .  S
C3536      C3537   1.408       .  A
C3537      C3538   1.396       .  A
C3537      H3545   1.081       .  S
C3538      H3546   1.084       .  S
C3547      C3548   1.407       .  A
C3547      C3552   1.407       .  A
C3548      C3549   1.399       .  A
C3548      H3561   1.083       .  S
C3549      C3550   1.399       .  A
C3549      H3562   1.083       .  S
C3550      C3551   1.398       .  A
C3550      C3553   1.437       .  S
C3551      C3552   1.395       .  A
C3551      H3563   1.084       .  S
C3552      H3564   1.083       .  S
C3553      C3554   1.204       .  T
C3554      C3555   1.437       .  S
C3555      C3556   1.398       .  A
C3555      C3560   1.400       .  A
C3556      C3557   1.395       .  A
C3556      H3565   1.084       .  S
C3557      C3558   1.407       .  A
C3557      H3566   1.082       .  S
C3558      C3559   1.407       .  A
C3559      C3560   1.400       .  A
C3559      H3567   1.082       .  S
C3560      H3568   1.083       .  S
C3569      C3570   1.408       .  A
C3569      C3574   1.407       .  A
C3570      C3571   1.401       .  A
C3570      H3583   1.082       .  S
C3571      C3572   1.401       .  A
C3571      H3584   1.083       .  S
C3572      C3573   1.398       .  A
C3572      C3575   1.440       .  S
C3573      C3574   1.396       .  A
C3573      H3585   1.084       .  S
C3574      H3586   1.082       .  S
C3575      C3576   1.206       .  T
C3576      C3577   1.440       .  S
C3577      C3578   1.399       .  A
C3577      C3582   1.400       .  A
C3578      C3579   1.396       .  A
C3578      H3587   1.084       .  S
C3579      C3580   1.407       .  A
C3579      H3588   1.083       .  S
C3580      C3581   1.408       .  A
C3581      C3582   1.401       .  A
C3581      H3589   1.083       .  S
C3582      H3590   1.083       .  S
C3591      C3592   1.408       .  A
C3591      C3596   1.407       .  A
C3592      C3593   1.402       .  A
C3592      H3605   1.083       .  S
C3593      C3594   1.401       .  A
C3593      H3606   1.083       .  S
C3594      C3595   1.399       .  A
C3594      C3597   1.442       .  S
C3595      C3596   1.397       .  A
C3595      H3607   1.084       .  S
C3596      H3608   1.083       .  S
C3597      C3598   1.208       .  T
C3598      C3599   1.442       .  S
C3599      C3600   1.398       .  A
C3599      C3604   1.401       .  A
C3600      C3601   1.396       .  A
C3600      H3609   1.084       .  S
C3601      C3602   1.407       .  A
C3601      H3610   1.082       .  S
C3602      C3603   1.409       .  A
C3603      C3604   1.402       .  A
C3603      H3611   1.082       .  S
C3604      H3612   1.083       .  S
C3613      C3614   1.408       .  A
C3613      C3618   1.407       .  A
C3614      C3615   1.403       .  A
C3614      H3627   1.083       .  S
C3615      C3616   1.402       .  A
C3615      H3628   1.083       .  S
C3616      C3617   1.398       .  A
C3616      C3619   1.442       .  S
C3617      C3618   1.396       .  A
C3617      H3629   1.084       .  S
C3618      H3630   1.083       .  S
C3619      C3620   1.207       .  T
C3620      C3621   1.442       .  S
C3621      C3622   1.398       .  A
C3621      C3626   1.400       .  A
C3622      C3623   1.397       .  A
C3622      H3631   1.084       .  S
C3623      C3624   1.409       .  A
C3623      H3632   1.081       .  S
C3624      C3625   1.410       .  A
C3625      C3626   1.402       .  A
C3625      H3633   1.081       .  S
C3626      H3634   1.083       .  S
C3635      C3636   1.407       .  A
C3635      C3640   1.408       .  A
C3636      C3637   1.396       .  A
C3636      H3649   1.083       .  S
C3637      C3638   1.398       .  A
C3637      H3650   1.084       .  S
C3638      C3639   1.401       .  A
C3638      C3641   1.442       .  S
C3639      C3640   1.403       .  A
C3639      H3651   1.083       .  S
C3640      H3652   1.083       .  S
C3641      C3642   1.208       .  T
C3642      C3643   1.442       .  S
C3643      C3644   1.401       .  A
C3643      C3648   1.399       .  A
C3644      C3645   1.402       .  A
C3644      H3653   1.083       .  S
C3645      C3646   1.407       .  A
C3645      H3654   1.082       .  S
C3646      C3647   1.407       .  A
C3647      C3648   1.397       .  A
C3647      H3655   1.082       .  S
C3648      H3656   1.084       .  S
C3657      C3658   1.408       .  A
C3657      C3662   1.408       .  A
C3658      C3659   1.400       .  A
C3658      H3671   1.083       .  S
C3659      C3660   1.400       .  A
C3659      H3672   1.083       .  S
C3660      C3661   1.399       .  A
C3660      C3663   1.440       .  S
C3661      C3662   1.397       .  A
C3661      H3673   1.084       .  S
C3662      H3674   1.083       .  S
C3663      C3664   1.206       .  T
C3664      C3665   1.440       .  S
C3665      C3666   1.397       .  A
C3665      C3670   1.400       .  A
C3666      C3667   1.395       .  A
C3666      H3675   1.084       .  S
C3667      C3668   1.409       .  A
C3667      H3676   1.080       .  S
C3668      C3669   1.409       .  A
C3669      C3670   1.401       .  A
C3669      H3677   1.081       .  S
C3670      H3678   1.083       .  S
C3679      C3680   1.408       .  A
C3679      C3684   1.407       .  A
C3680      C3681   1.400       .  A
C3680      H3693   1.083       .  S
C3681      C3682   1.400       .  A
C3681      H3694   1.083       .  S
C3682      C3683   1.399       .  A
C3682      C3685   1.440       .  S
C3683      C3684   1.397       .  A
C3683      H3695   1.084       .  S
C3684      H3696   1.083       .  S
C3685      C3686   1.206       .  T
C3686      C3687   1.440       .  S
C3687      C3688   1.398       .  A
C3687      C3692   1.401       .  A
C3688      C3689   1.395       .  A
C3688      H3697   1.084       .  S
C3689      C3690   1.407       .  A
C3689      H3698   1.081       .  S
C3690      C3691   1.409       .  A
C3691      C3692   1.402       .  A
C3691      H3699   1.082       .  S
C3692      H3700   1.083       .  S
C3701      C3702   1.406       .  A
C3701      C3706   1.409       .  A
C3702      C3703   1.395       .  A
C3702      H3715   1.083       .  S
C3703      C3704   1.398       .  A
C3703      H3716   1.084       .  S
C3704      C3705   1.400       .  A
C3704      C3707   1.439       .  S
C3705      C3706   1.401       .  A
C3705      H3717   1.083       .  S
C3706      H3718   1.083       .  S
C3707      C3708   1.206       .  T
C3708      C3709   1.439       .  S
C3709      C3710   1.400       .  A
C3709      C3714   1.398       .  A
C3710      C3711   1.401       .  A
C3710      H3719   1.083       .  S
C3711      C3712   1.408       .  A
C3711      H3720   1.082       .  S
C3712      C3713   1.408       .  A
C3713      C3714   1.395       .  A
C3713      H3721   1.081       .  S
C3714      H3722   1.084       .  S
C3723      C3724   1.407       .  A
C3723      C3728   1.408       .  A
C3724      C3725   1.396       .  A
C3724      H3737   1.083       .  S
C3725      C3726   1.399       .  A
C3725      H3738   1.084       .  S
C3726      C3727   1.401       .  A
C3726      C3729   1.441       .  S
C3727      C3728   1.402       .  A
C3727      H3739   1.083       .  S
C3728      H3740   1.083       .  S
C3729      C3730   1.207       .  T
C3730      C3731   1.441       .  S
C3731      C3732   1.400       .  A
C3731      C3736   1.398       .  A
C3732      C3733   1.402       .  A
C3732      H3741   1.083       .  S
C3733      C3734   1.409       .  A
C3733      H3742   1.082       .  S
C3734      C3735   1.408       .  A
C3735      C3736   1.396       .  A
C3735      H3743   1.081       .  S
C3736      H3744   1.084       .  S
C3745      C3746   1.407       .  A
C3745      C3750   1.408       .  A
C3746      C3747   1.396       .  A
C3746      H3759   1.083       .  S
C3747      C3748   1.399       .  A
C3747      H3760   1.084       .  S
C3748      C3749   1.401       .  A
C3748      C3751   1.442       .  S
C3749      C3750   1.402       .  A
C3749      H3761   1.083       .  S
C3750      H3762   1.083       .  S
C3751      C3752   1.208       .  T
C3752      C3753   1.443       .  S
C3753      C3754   1.401       .  A
C3753      C3758   1.398       .  A
C3754      C3755   1.403       .  A
C3754      H3763   1.083       .  S
C3755      C3756   1.408       .  A
C3755      H3764   1.082       .  S
C3756      C3757   1.407       .  A
C3757      C3758   1.397       .  A
C3757      H3765   1.082       .  S
C3758      H3766   1.084       .  S
C3767      C3768   1.408       .  A
C3767      C3772   1.407       .  A
C3768      C3769   1.401       .  A
C3768      H3781   1.083       .  S
C3769      C3770   1.400       .  A
C3769      H3782   1.083       .  S
C3770      C3771   1.399       .  A
C3770      C3773   1.441       .  S
C3771      C3772   1.397       .  A
C3771      H3783   1.084       .  S
C3772      H3784   1.083       .  S
C3773      C3774   1.207       .  T
C3774      C3775   1.441       .  S
C3775      C3776   1.398       .  A
C3775      C3780   1.401       .  A
C3776      C3777   1.396       .  A
C3776      H3785   1.084       .  S
C3777      C3778   1.408       .  A
C3777      H3786   1.081       .  S
C3778      C3779   1.409       .  A
C3779      C3780   1.402       .  A
C3779      H3787   1.082       .  S
C3780      H3788   1.083       .  S
C3789      C3790   1.408       .  A
C3789      C3794   1.406       .  A
C3790      C3791   1.401       .  A
C3790      H3803   1.083       .  S
C3791      C3792   1.400       .  A
C3791      H3804   1.083       .  S
C3792      C3793   1.398       .  A
C3792      C3795   1.438       .  S
C3793      C3794   1.395       .  A
C3793      H3805   1.084       .  S
C3794      H3806   1.083       .  S
C3795      C3796   1.205       .  T
C3796      C3797   1.438       .  S
C3797      C3798   1.397       .  A
C3797      C3802   1.400       .  A
C3798      C3799   1.395       .  A
C3798      H3807   1.084       .  S
C3799      C3800   1.408       .  A
C3799      H3808   1.081       .  S
C3800      C3801   1.409       .  A
C3801      C3802   1.401       .  A
C3801      H3809   1.082       .  S
C3802      H3810   1.083       .  S
C3811      C3812   1.407       .  A
C3811      C3816   1.408       .  A
C3812      C3813   1.396       .  A
C3812      H3825   1.083       .  S
C3813      C3814   1.399       .  A
C3813      H3826   1.084       .  S
C3814      C3815   1.400       .  A
C3814      C3817   1.438       .  S
C3815      C3816   1.400       .  A
C3815      H3827   1.083       .  S
C3816      H3828   1.083       .  S
C3817      C3818   1.205       .  T
C3818      C3819   1.438       .  S
C3819      C3820   1.400       .  A
C3819      C3824   1.397       .  A
C3820      C3821   1.401       .  A
C3820      H3829   1.083       .  S
C3821      C3822   1.409       .  A
C3821      H3830   1.082       .  S
C3822      C3823   1.408       .  A
C3823      C3824   1.394       .  A
C3823      H3831   1.081       .  S
C3824      H3832   1.084       .  S
C3833      C3834   1.408       .  A
C3833      C3838   1.407       .  A
C3834      C3835   1.402       .  A
C3834      H3847   1.083       .  S
C3835      C3836   1.401       .  A
C3835      H3848   1.083       .  S
C3836      C3837   1.399       .  A
C3836      C3839   1.442       .  S
C3837      C3838   1.397       .  A
C3837      H3849   1.084       .  S
C3838      H3850   1.083       .  S
C3839      C3840   1.208       .  T
C3840      C3841   1.442       .  S
C3841      C3842   1.398       .  A
C3841      C3846   1.401       .  A
C3842      C3843   1.397       .  A
C3842      H3851   1.084       .  S
C3843      C3844   1.408       .  A
C3843      H3852   1.081       .  S
C3844      C3845   1.409       .  A
C3845      C3846   1.402       .  A
C3845      H3853   1.082       .  S
C3846      H3854   1.083       .  S
C3855      C3856   1.407       .  A
C3855      C3860   1.408       .  A
C3856      C3857   1.395       .  A
C3856      H3869   1.082       .  S
C3857      C3858   1.398       .  A
C3857      H3870   1.084       .  S
C3858      C3859   1.399       .  A
C3858      C3861   1.437       .  S
C3859      C3860   1.399       .  A
C3859      H3871   1.083       .  S
C3860      H3872   1.082       .  S
C3861      C3862   1.204       .  T
C3862      C3863   1.437       .  S
C3863      C3864   1.400       .  A
C3863      C3868   1.398       .  A
C3864      C3865   1.401       .  A
C3864      H3873   1.083       .  S
C3865      C3866   1.408       .  A
C3865      H3874   1.083       .  S
C3866      C3867   1.406       .  A
C3867      C3868   1.394       .  A
C3867      H3875   1.083       .  S
C3868      H3876   1.084       .  S
C3877      C3878   1.407       .  A
C3877      C3882   1.407       .  A
C3878      C3879   1.400       .  A
C3878      H3891   1.083       .  S
C3879      C3880   1.400       .  A
C3879      H3892   1.083       .  S
C3880      C3881   1.398       .  A
C3880      C3883   1.437       .  S
C3881      C3882   1.395       .  A
C3881      H3893   1.084       .  S
C3882      H3894   1.083       .  S
C3883      C3884   1.205       .  T
C3884      C3885   1.437       .  S
C3885      C3886   1.397       .  A
C3885      C3890   1.399       .  A
C3886      C3887   1.395       .  A
C3886      H3895   1.084       .  S
C3887      C3888   1.409       .  A
C3887      H3896   1.080       .  S
C3888      C3889   1.409       .  A
C3889      C3890   1.400       .  A
C3889      H3897   1.081       .  S
C3890      H3898   1.083       .  S
C3899      C3900   1.407       .  A
C3899      C3904   1.408       .  A
C3900      C3901   1.396       .  A
C3900      H3913   1.083       .  S
C3901      C3902   1.399       .  A
C3901      H3914   1.084       .  S
C3902      C3903   1.401       .  A
C3902      C3905   1.442       .  S
C3903      C3904   1.402       .  A
C3903      H3915   1.083       .  S
C3904      H3916   1.083       .  S
C3905      C3906   1.207       .  T
C3906      C3907   1.442       .  S
C3907      C3908   1.400       .  A
C3907      C3912   1.398       .  A
C3908      C3909   1.402       .  A
C3908      H3917   1.083       .  S
C3909      C3910   1.409       .  A
C3909      H3918   1.082       .  S
C3910      C3911   1.407       .  A
C3911      C3912   1.396       .  A
C3911      H3919   1.081       .  S
C3912      H3920   1.084       .  S
C3921      C3922   1.408       .  A
C3921      C3926   1.409       .  A
C3922      C3923   1.396       .  A
C3922      H3935   1.081       .  S
C3923      C3924   1.398       .  A
C3923      H3936   1.084       .  S
C3924      C3925   1.400       .  A
C3924      C3927   1.441       .  S
C3925      C3926   1.402       .  A
C3925      H3937   1.083       .  S
C3926      H3938   1.082       .  S
C3927      C3928   1.207       .  T
C3928      C3929   1.441       .  S
C3929      C3930   1.401       .  A
C3929      C3934   1.399       .  A
C3930      C3931   1.401       .  A
C3930      H3939   1.083       .  S
C3931      C3932   1.408       .  A
C3931      H3940   1.083       .  S
C3932      C3933   1.407       .  A
C3933      C3934   1.397       .  A
C3933      H3941   1.083       .  S
C3934      H3942   1.084       .  S
C3943      C3944   1.409       .  A
C3943      C3948   1.407       .  A
C3944      C3945   1.402       .  A
C3944      H3957   1.083       .  S
C3945      C3946   1.401       .  A
C3945      H3958   1.083       .  S
C3946      C3947   1.400       .  A
C3946      C3949   1.444       .  S
C3947      C3948   1.398       .  A
C3947      H3959   1.084       .  S
C3948      H3960   1.083       .  S
C3949      C3950   1.209       .  T
C3950      C3951   1.444       .  S
C3951      C3952   1.398       .  A
C3951      C3956   1.402       .  A
C3952      C3953   1.396       .  A
C3952      H3961   1.084       .  S
C3953      C3954   1.408       .  A
C3953      H3962   1.081       .  S
C3954      C3955   1.409       .  A
C3955      C3956   1.404       .  A
C3955      H3963   1.082       .  S
C3956      H3964   1.083       .  S
C3965      C3966   1.408       .  A
C3965      C3970   1.407       .  A
C3966      C3967   1.401       .  A
C3966      H3979   1.082       .  S
C3967      C3968   1.400       .  A
C3967      H3980   1.083       .  S
C3968      C3969   1.398       .  A
C3968      C3971   1.439       .  S
C3969      C3970   1.395       .  A
C3969      H3981   1.084       .  S
C3970      H3982   1.082       .  S
C3971      C3972   1.206       .  T
C3972      C3973   1.439       .  S
C3973      C3974   1.399       .  A
C3973      C3978   1.400       .  A
C3974      C3975   1.397       .  A
C3974      H3983   1.084       .  S
C3975      C3976   1.406       .  A
C3975      H3984   1.083       .  S
C3976      C3977   1.408       .  A
C3977      C3978   1.400       .  A
C3977      H3985   1.083       .  S
C3978      H3986   1.083       .  S
C3987      C3988   1.407       .  A
C3987      C3992   1.408       .  A
C3988      C3989   1.395       .  A
C3988      H4001   1.083       .  S
C3989      C3990   1.398       .  A
C3989      H4002   1.084       .  S
C3990      C3991   1.401       .  A
C3990      C3993   1.441       .  S
C3991      C3992   1.402       .  A
C3991      H4003   1.083       .  S
C3992      H4004   1.083       .  S
C3993      C3994   1.207       .  T
C3994      C3995   1.441       .  S
C3995      C3996   1.400       .  A
C3995      C4000   1.398       .  A
C3996      C3997   1.402       .  A
C3996      H4005   1.083       .  S
C3997      C3998   1.409       .  A
C3997      H4006   1.082       .  S
C3998      C3999   1.408       .  A
C3999      C4000   1.395       .  A
C3999      H4007   1.081       .  S
C4000      H4008   1.084       .  S
