geometry optimzed in LAMMPS
_audit_creation_date              2020-11-30 
_audit_creation_method            'lammps2cif' 
_symmetry_space_group_name_H-M    'P1' 
_symmetry_Int_Tables_number       1 
_symmetry_cell_setting            triclinic 
loop_ 
_symmetry_equiv_pos_as_xyz 
  x,y,z 
_cell_length_a                    39.33361227826094 
_cell_length_b                    39.597925706031795 
_cell_length_c                    82.45391872389135 
_cell_angle_alpha                 90.29264551791614 
_cell_angle_beta                  89.88671376516137 
_cell_angle_gamma                 123.68898210871544 
loop_ 
_atom_site_label 
_atom_site_type_symbol 
_atom_site_fract_x 
_atom_site_fract_y 
_atom_site_fract_z 
_atom_site_charge 
In1        In  0.99488706  0.78837860  0.00036244     1.36870
C2          C  0.93303518  0.79841839  0.00061933     0.77070
O3          O  0.04727848  0.84170951  0.01400867    -0.61380
O4          O  0.04454596  0.84518849  0.98842010    -0.52290
C5          C  0.99725999  0.74332952  0.02379320     0.69730
O6          O  0.98191334  0.76378275  0.02595390    -0.47150
C7          C  0.98498816  0.74088814  0.97523645     0.74440
O8          O  0.93355845  0.77219267  0.00896952    -0.59010
O9          O  0.01936932  0.77034391  0.97988541    -0.49100
O10         O  0.96435896  0.82004360  0.99202633    -0.55440
C11         C  0.06383162  0.86195678  0.00130232     0.84620
O12         O  0.01292036  0.74782787  0.00999351    -0.57330
O13         O  0.95544132  0.73741091  0.98288151    -0.60620
In14       In  0.17729981  0.96999744  0.99973158     1.36870
C15         C  0.16720669  0.03129594  0.99958225     0.77070
O16         O  0.22470421  0.00802481  0.98074821    -0.61380
O17         O  0.20018817  0.94515244  0.98132173    -0.52290
C18         C  0.22450122  0.97203571  0.02341573     0.69730
O19         O  0.20379068  0.98728058  0.02506417    -0.47150
C20         C  0.10323055  0.90119885  0.00114444     0.74440
O21         O  0.19064503  0.02917582  0.00927742    -0.59010
O22         O  0.11954268  0.91966237  0.98814718    -0.49100
O23         O  0.14837910  0.00180235  0.98984846    -0.55440
C24         C  0.22543380  0.97888745  0.97493715     0.84620
O25         O  0.21950377  0.95475295  0.00995073    -0.57330
O26         O  0.12412328  0.91846227  0.01369004    -0.60620
In27       In  0.00025513  0.14840402  0.99817324     1.36870
C28         C  0.05879043  0.13368173  0.99737378     0.77070
O29         O  0.03876790  0.19966651  0.01571095    -0.61380
O30         O  0.97509372  0.17140320  0.01661052    -0.52290
C31         C  0.99732236  0.19110008  0.97382802     0.69730
O32         O  0.03059210  0.19900817  0.97966499    -0.47150
C33         C  0.93244879  0.07387100  0.99856143     0.74440
O34         O  0.04947915  0.14628831  0.98527953    -0.59010
O35         O  0.94866524  0.09470432  0.01124128    -0.49100
O36         O  0.03710992  0.12695672  0.00976032    -0.55440
C37         C  0.00938228  0.19902020  0.02213214     0.84620
O38         O  0.96626482  0.16120384  0.98033150    -0.57330
O39         O  0.95191075  0.09030659  0.98566269    -0.60620
In40       In  0.16430156  0.13432438  0.99862662     1.36870
C41         C  0.20979648  0.18077801  0.97395287     0.77070
O42         O  0.18585509  0.09662177  0.00843245    -0.61380
O43         O  0.14019336  0.06966915  0.99034640    -0.52290
C44         C  0.20283472  0.17742866  0.02507712     0.69730
O45         O  0.22145636  0.17664253  0.01275959    -0.47150
C46         C  0.09407207  0.13018993  0.99731015     0.74440
O47         O  0.20751850  0.19486182  0.98732624    -0.59010
O48         O  0.10229601  0.11488252  0.00876653    -0.49100
O49         O  0.18786602  0.14250866  0.97304712    -0.55440
C50         C  0.16383379  0.06638545  0.99948644     0.84620
O51         O  0.16439611  0.15511515  0.02396410    -0.57330
O52         O  0.12015066  0.14484849  0.98613392    -0.60620
In53       In  0.81757211  0.96720060  0.99981028     1.36870
C54         C  0.89283085  0.03465443  0.99885622     0.77070
O55         O  0.83270758  0.92651845  0.01273247    -0.61380
O56         O  0.82007282  0.91767677  0.98760557    -0.52290
C57         C  0.76687134  0.95875845  0.02347684     0.69730
O58         O  0.80413295  0.98705478  0.02322224    -0.47150
C59         C  0.77552818  0.97461813  0.97619181     0.74440
O60         O  0.87314313  0.01980432  0.01179797    -0.59010
O61         O  0.77434943  0.94248150  0.97839168    -0.49100
O62         O  0.87483950  0.01416527  0.98628034    -0.55440
C63         C  0.82866199  0.90621844  0.00023623     0.84620
O64         O  0.75604078  0.93348891  0.01208156    -0.57330
O65         O  0.79915434  0.00291442  0.98580940    -0.60620
In66       In  0.82971052  0.80212932  0.00043592     1.36870
C67         C  0.79274260  0.75619110  0.97446620     0.77070
O68         O  0.81793623  0.84574121  0.98877828    -0.61380
O69         O  0.84598135  0.86182359  0.01190552    -0.52290
C70         C  0.78068160  0.76396385  0.02558549     0.69730
O71         O  0.76784915  0.76025151  0.01124667    -0.47150
C72         C  0.89780530  0.80193466  0.00074667     0.74440
O73         O  0.78981800  0.74190536  0.98838832    -0.59010
O74         O  0.89632649  0.82896790  0.99342824    -0.49100
O75         O  0.81507268  0.79435889  0.97367413    -0.55440
C76         C  0.83147932  0.87073769  0.00031883     0.84620
O77         O  0.81858187  0.78957830  0.02716913    -0.57330
O78         O  0.86568140  0.77678467  0.00813231    -0.60620
In79       In  0.03771550  0.62747690  0.09836253     1.36870
C80         C  0.01506484  0.62070685  0.12906643     0.77070
O81         O  0.00063053  0.56059618  0.09163947    -0.61380
O82         O  0.06253118  0.58921572  0.09893734    -0.52290
C83         C  0.01193121  0.64814780  0.07291510     0.69730
O84         O  0.99677817  0.64384690  0.08689004    -0.47150
C85         C  0.10961870  0.69775582  0.09831470     0.74440
O86         O  0.99050552  0.61362507  0.11765021    -0.59010
O87         O  0.10424945  0.66570886  0.09240974    -0.49100
O88         O  0.04999427  0.63041824  0.12470518    -0.55440
C89         C  0.02988789  0.55694786  0.09470069     0.84620
O90         O  0.03680283  0.63769898  0.07192112    -0.57330
O91         O  0.07789282  0.69344600  0.10428164    -0.60620
In92       In  0.03466126  0.62566648  0.22902993     1.36870
C93         C  0.01697683  0.62437583  0.19781726     0.77070
O94         O  0.06731217  0.69453195  0.23039751    -0.61380
O95         O  0.10069149  0.66808072  0.23424509    -0.52290
C96         C  0.98403176  0.59826472  0.25429683     0.69730
O97         O  0.97399948  0.60535246  0.24085274    -0.47150
C98         C  0.04003238  0.56218414  0.22799535     0.74440
O99         O  0.00363600  0.63705935  0.20855799    -0.59010
O100        O  0.07029635  0.59751181  0.23128533    -0.49100
O101        O  0.03934870  0.61344614  0.20305889    -0.55440
C102        C  0.10184590  0.70021702  0.23271036     0.84620
O103        O  0.02083611  0.60975899  0.25524267    -0.57330
O104        O  0.00733183  0.55993756  0.22514639    -0.60620
In105      In  0.33213037  0.92207453  0.23167328     1.36870
C106        C  0.33463826  0.93285917  0.19979501     0.77070
O107        O  0.39785935  0.94652687  0.22809294    -0.61380
O108        O  0.36016190  0.88806546  0.23849019    -0.52290
C109        C  0.35698734  0.97411279  0.25635115     0.69730
O110        O  0.35948842  0.98532490  0.24184141    -0.47150
C111        C  0.25646599  0.85672683  0.23457172     0.74440
O112        O  0.32783470  0.95356469  0.20937799    -0.59010
O113        O  0.28829481  0.85682113  0.23625877    -0.49100
O114        O  0.33871377  0.90712572  0.20674000    -0.55440
C115        C  0.39524500  0.91550106  0.23358397     0.84620
O116        O  0.33718679  0.93626451  0.25800462    -0.57330
O117        O  0.26304583  0.89146027  0.23225704    -0.60620
In118      In  0.60465490  0.91142153  0.09896813     1.36870
C119        C  0.60467714  0.84503624  0.10045168     0.77070
O120        O  0.61967948  0.91073507  0.07301090    -0.61380
O121        O  0.66549244  0.95798682  0.08792743    -0.52290
C122        C  0.54484914  0.92118724  0.09210366     0.69730
O123        O  0.54106208  0.88746692  0.09164577    -0.47150
C124        C  0.61106594  0.92289774  0.13079774     0.74440
O125        O  0.57386376  0.84435571  0.09553524    -0.59010
O126        O  0.63891003  0.94815182  0.12129017    -0.49100
O127        O  0.63448082  0.87954354  0.10463247    -0.55440
C128        C  0.65641174  0.94013788  0.07431155     0.84620
O129        O  0.58053531  0.95092351  0.09553753    -0.57330
O130        O  0.57991969  0.89384971  0.12382653    -0.60620
In131      In  0.33471750  0.92530306  0.09771034     1.36870
C132        C  0.34123156  0.93542426  0.12962887     0.77070
O133        O  0.26709726  0.88803621  0.10133804    -0.61380
O134        O  0.29561324  0.85843380  0.09359730    -0.52290
C135        C  0.31803529  0.95698036  0.07320805     0.69730
O136        O  0.31972417  0.96870187  0.08766261    -0.47150
C137        C  0.40463198  0.93239231  0.09151458     0.74440
O138        O  0.34885013  0.96430712  0.12038123    -0.59010
O139        O  0.36987390  0.90043996  0.08919931    -0.49100
O140        O  0.33067257  0.90313207  0.12233072    -0.55440
C141        C  0.26281478  0.85500693  0.09753195     0.84620
O142        O  0.32894364  0.93278122  0.07156180    -0.57330
O143        O  0.40377183  0.96221207  0.09640998    -0.60620
In144      In  0.61738366  0.63849332  0.23435640     1.36870
C145        C  0.63631215  0.64865423  0.20309272     0.77070
O146        O  0.57935143  0.57096395  0.23166685    -0.61380
O147        O  0.54885494  0.60040681  0.23614993    -0.52290
C148        C  0.65017372  0.61906712  0.25770125     0.69730
O149        O  0.65768145  0.61847418  0.24287894    -0.47150
C150        C  0.62283247  0.70721849  0.24128019     0.74440
O151        O  0.66150460  0.65293967  0.21371075    -0.59010
O152        O  0.59139633  0.67233732  0.24364526    -0.49100
O153        O  0.60244779  0.63989813  0.20851599    -0.55440
C154        C  0.54590981  0.56735108  0.23404486     0.84620
O155        O  0.62968030  0.63403936  0.26066559    -0.57330
O156        O  0.65327461  0.70713112  0.23634241    -0.60620
In157      In  0.60423187  0.90816373  0.23267980     1.36870
C158        C  0.53628988  0.90640834  0.23209467     0.77070
O159        O  0.60943857  0.92506413  0.25891937    -0.61380
O160        O  0.64762510  0.97168378  0.24214753    -0.52290
C161        C  0.61679305  0.85008903  0.23909523     0.69730
O162        O  0.58244670  0.84545225  0.24040215    -0.47150
C163        C  0.61227814  0.91404964  0.20070740     0.74440
O164        O  0.53671877  0.87651306  0.23714880    -0.59010
O165        O  0.64110662  0.93915580  0.21000175    -0.49100
O166        O  0.57040351  0.93629352  0.22760485    -0.55440
C167        C  0.63417423  0.96251641  0.25648454     0.84620
O168        O  0.64542954  0.88550964  0.23504561    -0.57330
O169        O  0.58192296  0.88489622  0.20789245    -0.60620
In170      In  0.61719601  0.64008512  0.10235080     1.36870
C171        C  0.63227601  0.64262335  0.13391650     0.77070
O172        O  0.64341057  0.70603585  0.10370658    -0.61380
O173        O  0.57970452  0.66620773  0.09943744    -0.52290
C174        C  0.66845152  0.66674950  0.07726423     0.69730
O175        O  0.68040237  0.66822212  0.09161454    -0.47150
C176        C  0.55316465  0.56467359  0.09691811     0.74440
O177        O  0.64858259  0.63190415  0.12367796    -0.59010
O178        O  0.55228084  0.59588652  0.09590107    -0.49100
O179        O  0.60782221  0.65014733  0.12793955    -0.55440
C180        C  0.60983276  0.70231814  0.10127713     0.84620
O181        O  0.63028657  0.64733310  0.07586448    -0.57330
O182        O  0.58783445  0.57201277  0.10060634    -0.60620
In183      In  0.32278097  0.34645336  0.10011866     1.36870
C184        C  0.32185598  0.33727142  0.13207960     0.77070
O185        O  0.39158366  0.37685410  0.09818381    -0.61380
O186        O  0.36540151  0.40869220  0.09097371    -0.52290
C187        C  0.29436975  0.29170466  0.07641904     0.69730
O188        O  0.31418082  0.29015063  0.08813185    -0.47150
C189        C  0.26022787  0.35400017  0.10097394     0.74440
O190        O  0.31260008  0.30832792  0.12249696    -0.59010
O191        O  0.29500470  0.38184987  0.09592689    -0.49100
O192        O  0.33440839  0.37031988  0.12511710    -0.55440
C193        C  0.39764174  0.41003761  0.09333252     0.84620
O194        O  0.29300165  0.32260352  0.07628402    -0.57330
O195        O  0.25796240  0.32263713  0.10583274    -0.60620
In196      In  0.32051529  0.34146261  0.23415387     1.36870
C197        C  0.31407878  0.33011462  0.20219017     0.77070
O198        O  0.25128230  0.30439010  0.23456525    -0.61380
O199        O  0.28418399  0.36423273  0.24398408    -0.52290
C200        C  0.33951927  0.30903995  0.25777181     0.69730
O201        O  0.33921800  0.30010911  0.24301683    -0.47150
C202        C  0.39103628  0.41313227  0.23411895     0.74440
O203        O  0.30650097  0.30175256  0.21170761    -0.59010
O204        O  0.35736068  0.40907221  0.23670174    -0.49100
O205        O  0.32416521  0.36263833  0.20924129    -0.55440
C206        C  0.24974232  0.33313862  0.24034950     0.84620
O207        O  0.32604153  0.33092877  0.26034138    -0.57330
O208        O  0.38860505  0.38036398  0.23183023    -0.60620
In209      In  0.05093359  0.35679451  0.23039830     1.36870
C210        C  0.05356113  0.42446256  0.22753089     0.77070
O211        O  0.07333619  0.36695702  0.20496038    -0.61380
O212        O  0.01166458  0.31850950  0.20924157    -0.52290
C213        C  0.11025862  0.34602477  0.23754948     0.69730
O214        O  0.11532868  0.38028804  0.23662363    -0.47150
C215        C  0.00124818  0.33311023  0.25594172     0.74440
O216        O  0.08374979  0.42445322  0.23271500    -0.59010
O217        O  0.99122867  0.31217984  0.24305423    -0.49100
O218        O  0.02323615  0.39009501  0.22343464    -0.55440
C219        C  0.03958773  0.33937973  0.19898255     0.84620
O220        O  0.07378869  0.31644203  0.23517578    -0.57330
O221        O  0.03781810  0.36320043  0.25612474    -0.60620
In222      In  0.04916801  0.35764617  0.09802019     1.36870
C223        C  0.11608292  0.35791249  0.09859648     0.77070
O224        O  0.06823410  0.37394895  0.12363291    -0.61380
O225        O  0.00847161  0.32165407  0.11933175    -0.52290
C226        C  0.03676539  0.41614628  0.09417526     0.69730
O227        O  0.07186305  0.42267478  0.09551001    -0.47150
C228        C  0.02582380  0.31088019  0.07196228     0.74440
O229        O  0.11665107  0.38893859  0.09432616    -0.59010
O230        O  0.00473289  0.29916422  0.08484122    -0.49100
O231        O  0.08152753  0.32791544  0.10276959    -0.55440
C232        C  0.03604329  0.34412695  0.12956994     0.84620
O233        O  0.00764703  0.37922884  0.09367659    -0.57330
O234        O  0.05541438  0.34757299  0.07199502    -0.60620
In235      In  0.47763829  0.29688121  0.33329851     1.36870
C236        C  0.48729406  0.23462554  0.33321963     0.77070
O237        O  0.52936485  0.35069716  0.31980339    -0.61380
O238        O  0.53567134  0.34718365  0.34516337    -0.52290
C239        C  0.43379756  0.29691102  0.30839853     0.69730
O240        O  0.45991411  0.28812124  0.30672522    -0.47150
C241        C  0.43230780  0.29011997  0.35904676     0.74440
O242        O  0.45657422  0.23238529  0.32739406    -0.59010
O243        O  0.46136260  0.32371924  0.35374150    -0.49100
O244        O  0.51353932  0.26881498  0.33918755    -0.55440
C245        C  0.55107326  0.36701475  0.33228762     0.84620
O246        O  0.43119737  0.30660403  0.32268878    -0.57330
O247        O  0.42772982  0.25994503  0.35160637    -0.60620
In248      In  0.49454921  0.13362975  0.33362761     1.36870
C249        C  0.45121836  0.09418033  0.36000121     0.77070
O250        O  0.54304775  0.12876437  0.34589636    -0.61380
O251        O  0.55128689  0.14392852  0.32109606    -0.52290
C252        C  0.45291245  0.08714605  0.30819673     0.69730
O253        O  0.44907731  0.07400475  0.32242310    -0.47150
C254        C  0.49117540  0.19966442  0.33318448     0.74440
O255        O  0.44527215  0.07781131  0.34625760    -0.59010
O256        O  0.52285190  0.20141524  0.33755143    -0.49100
O257        O  0.47987660  0.13129862  0.36028408    -0.55440
C258        C  0.56403399  0.13539214  0.33336993     0.84620
O259        O  0.47932150  0.12478801  0.30681981    -0.57330
O260        O  0.46222114  0.16489338  0.32884690    -0.60620
In261      In  0.66198649  0.47925215  0.33193956     1.36870
C262        C  0.59076507  0.40635190  0.33199894     0.77070
O263        O  0.66363302  0.53290215  0.32203490    -0.61380
O264        O  0.66225253  0.49202667  0.30514954    -0.52290
C265        C  0.66781190  0.52597517  0.35685159     0.69730
O266        O  0.63448881  0.50033442  0.35001284    -0.47150
C267        C  0.72471432  0.46950745  0.33143151     0.74440
O268        O  0.61183304  0.42274925  0.34457624    -0.59010
O269        O  0.72235965  0.49336575  0.32222217    -0.49100
O270        O  0.60623517  0.42680847  0.31927893    -0.55440
C271        C  0.66328371  0.52416528  0.30732809     0.84620
O272        O  0.69800880  0.52622108  0.35139659    -0.57330
O273        O  0.69491292  0.45020742  0.34095926    -0.60620
In274      In  0.82979291  0.46819790  0.33282560     1.36870
C275        C  0.86788679  0.51123210  0.35951477     0.77070
O276        O  0.79055067  0.48779765  0.32230418    -0.61380
O277        O  0.76414670  0.44323034  0.34063305    -0.52290
C278        C  0.87268582  0.50836636  0.30663113     0.69730
O279        O  0.86970618  0.52578834  0.31885008    -0.47150
C280        C  0.83074451  0.40074743  0.33347000     0.74440
O281        O  0.88648506  0.51405734  0.34661793    -0.59010
O282        O  0.80419198  0.40236835  0.32557008    -0.49100
O283        O  0.82989155  0.48516848  0.35894014    -0.55440
C284        C  0.76031442  0.46620824  0.33136621     0.84620
O285        O  0.85298630  0.47020554  0.30766260    -0.57330
O286        O  0.85496725  0.43243756  0.34143250    -0.60620
In287      In  0.84434496  0.30325615  0.33358225     1.36870
C288        C  0.77178756  0.23160103  0.33387509     0.77070
O289        O  0.88632112  0.28658921  0.34370751    -0.61380
O290        O  0.86060606  0.30708146  0.36022811    -0.52290
C291        C  0.89358741  0.31671962  0.30833541     0.69730
O292        O  0.85634662  0.28807576  0.30866195    -0.47150
C293        C  0.83463620  0.36571280  0.33331267     0.74440
O294        O  0.79639571  0.24348947  0.32219827    -0.59010
O295        O  0.86128944  0.36539932  0.34155088    -0.49100
O296        O  0.78404901  0.25627935  0.34559033    -0.55440
C297        C  0.88478929  0.29599353  0.35813936     0.84620
O298        O  0.90470619  0.34003744  0.32046815    -0.57330
O299        O  0.81273551  0.33415299  0.32488855    -0.60620
In300      In  0.66041124  0.11964532  0.33273894     1.36870
C301        C  0.73219804  0.19210681  0.33364359     0.77070
O302        O  0.61737875  0.13287803  0.32029659    -0.61380
O303        O  0.61225714  0.12431514  0.34560700    -0.52290
C304        C  0.65341378  0.07115565  0.30817940     0.69730
O305        O  0.66313816  0.10697519  0.30598318    -0.47150
C306        C  0.66169844  0.07639553  0.35721659     0.74440
O307        O  0.72248214  0.16637655  0.32252896    -0.59010
O308        O  0.62898826  0.06746429  0.35038207    -0.49100
O309        O  0.70524750  0.18104562  0.34439964    -0.55440
C310        C  0.59908546  0.13135220  0.33307733     0.84620
O311        O  0.64562492  0.06000092  0.32269055    -0.57330
O312        O  0.69334749  0.10804957  0.35172823    -0.60620
In313      In  0.28354728  0.97595952  0.43486607     1.36870
C314        C  0.28973859  0.97244766  0.46674256     0.77070
O315        O  0.30928187  0.04185972  0.43679717    -0.61380
O316        O  0.24704845  0.00287436  0.43005713    -0.52290
C317        C  0.34192652  0.00201278  0.41262046     0.69730
O318        O  0.34959345  0.00938544  0.42751585    -0.47150
C319        C  0.21922603  0.90133165  0.42852584     0.74440
O320        O  0.31178440  0.96744956  0.45717874    -0.59010
O321        O  0.22146364  0.93335571  0.42479691    -0.49100
O322        O  0.26525126  0.97872448  0.45988459    -0.55440
C323        C  0.27666321  0.03864167  0.43300385     0.84620
O324        O  0.30460196  0.97776852  0.40932763    -0.57330
O325        O  0.25158873  0.90747972  0.43475873    -0.60620
In326      In  0.98710014  0.68288790  0.43445111     1.36870
C327        C  0.99209847  0.67435201  0.46614074     0.77070
O328        O  0.05623812  0.71525866  0.43309545    -0.61380
O329        O  0.02883556  0.74398159  0.42362595    -0.52290
C330        C  0.95642960  0.62669651  0.41101861     0.69730
O331        O  0.97956590  0.62754868  0.42186352    -0.47150
C332        C  0.92548502  0.69147789  0.43768077     0.74440
O333        O  0.98286372  0.64580854  0.45631964    -0.59010
O334        O  0.95902414  0.71827546  0.43132428    -0.49100
O335        O  0.99889376  0.70606551  0.45954789    -0.55440
C336        C  0.06154657  0.74724000  0.42722027     0.84620
O337        O  0.95183571  0.65557579  0.41170614    -0.57330
O338        O  0.92397679  0.66043538  0.44249447    -0.60620
In339      In  0.28694921  0.97722373  0.56849588     1.36870
C340        C  0.29700639  0.98207630  0.53662774     0.77070
O341        O  0.24960888  0.91041259  0.56416178    -0.61380
O342        O  0.21930823  0.93796237  0.57216605    -0.52290
C343        C  0.31786672  0.95826838  0.59264136     0.69730
O344        O  0.33068998  0.96214325  0.57827004    -0.47150
C345        C  0.29577720  0.04723372  0.57517063     0.74440
O346        O  0.32509809  0.98757527  0.54602847    -0.59010
O347        O  0.26322012  0.01301259  0.57740114    -0.49100
O348        O  0.26606555  0.97669288  0.54376323    -0.55440
C349        C  0.21621745  0.90567135  0.56796601     0.84620
O350        O  0.29320772  0.96874763  0.59460827    -0.57330
O351        O  0.32532133  0.04570180  0.57019226    -0.60620
In352      In  0.27532975  0.24623783  0.56828770     1.36870
C353        C  0.28785049  0.25723576  0.53651691     0.77070
O354        O  0.31506848  0.22253997  0.57233059    -0.61380
O355        O  0.25077255  0.18176286  0.57366606    -0.52290
C356        C  0.30210987  0.29673373  0.59329409     0.69730
O357        O  0.32068144  0.30703131  0.57984610    -0.47150
C358        C  0.20754070  0.24447595  0.56842176     0.74440
O359        O  0.31648607  0.27815039  0.54656356    -0.59010
O360        O  0.20790451  0.21372291  0.57212536    -0.49100
O361        O  0.25439901  0.23021490  0.54275162    -0.55440
C362        C  0.28510680  0.18648785  0.57452573     0.84620
O363        O  0.27335902  0.25994019  0.59435456    -0.57330
O364        O  0.24183564  0.27525418  0.56437812    -0.60620
In365      In  0.99876530  0.25524642  0.43459354     1.36870
C366        C  0.01121197  0.27592596  0.46562281     0.77070
O367        O  0.93402668  0.21499509  0.44287921    -0.61380
O368        O  0.96069854  0.18790598  0.43088895    -0.52290
C369        C  0.97354698  0.28111025  0.41057584     0.69730
O370        O  0.97644899  0.29294138  0.42502787    -0.47150
C371        C  0.06981432  0.26514939  0.42752453     0.74440
O372        O  0.00918980  0.29803204  0.45518052    -0.59010
O373        O  0.03588907  0.23152197  0.42712163    -0.49100
O374        O  0.00881767  0.24507731  0.45998238    -0.55440
C375        C  0.92955739  0.18278700  0.43773784     0.84620
O376        O  0.98776570  0.25980168  0.40820818    -0.57330
O377        O  0.06750042  0.29502395  0.43095779    -0.60620
In378      In  0.27081525  0.24644957  0.43559155     1.36870
C379        C  0.26587955  0.17739036  0.43658840     0.77070
O380        O  0.28154804  0.24158731  0.40945377    -0.61380
O381        O  0.33103698  0.28928490  0.42281476    -0.52290
C382        C  0.21379470  0.26097148  0.42934651     0.69730
O383        O  0.20730634  0.22598666  0.42902936    -0.47150
C384        C  0.28291890  0.26274575  0.46711586     0.74440
O385        O  0.23516923  0.17845268  0.43321873    -0.59010
O386        O  0.31070437  0.28390076  0.45684715    -0.49100
O387        O  0.29766093  0.21116110  0.44026423    -0.55440
C388        C  0.31901664  0.26928093  0.40965984     0.84620
O389        O  0.25045058  0.28926135  0.43229213    -0.57330
O390        O  0.24941084  0.23465087  0.46115265    -0.60620
In391      In  0.00265944  0.25980123  0.56665284     1.36870
C392        C  0.00524875  0.27135824  0.53490758     0.77070
O393        O  0.06930330  0.28739000  0.56539468    -0.61380
O394        O  0.03151695  0.22517507  0.57138354    -0.52290
C395        C  0.02793061  0.31622805  0.58954928     0.69730
O396        O  0.03406046  0.32467206  0.57470033    -0.47150
C397        C  0.92815819  0.19388891  0.57179152     0.74440
O398        O  0.99430077  0.28855742  0.54455638    -0.59010
O399        O  0.96078199  0.19660345  0.57512134    -0.49100
O400        O  0.01115257  0.24649966  0.54149562    -0.55440
C401        C  0.06723516  0.25535493  0.56863057     0.84620
O402        O  0.00449409  0.27892297  0.59256701    -0.57330
O403        O  0.93354466  0.22644782  0.56642917    -0.60620
In404      In  0.70621096  0.96398577  0.56429897     1.36870
C405        C  0.68891368  0.96088056  0.53298884     0.77070
O406        O  0.73729566  0.03239900  0.56562351    -0.61380
O407        O  0.77124529  0.00738254  0.57127995    -0.52290
C408        C  0.65416035  0.93754344  0.58917272     0.69730
O409        O  0.64342774  0.93858647  0.57489037    -0.47150
C410        C  0.71132180  0.90008840  0.56425459     0.74440
O411        O  0.67340033  0.97190634  0.54346398    -0.59010
O412        O  0.74221695  0.93582576  0.56618776    -0.49100
O413        O  0.71477065  0.95470968  0.53848690    -0.55440
C414        C  0.77149975  0.03911344  0.56966382     0.84620
O415        O  0.69209883  0.95432539  0.59077638    -0.57330
O416        O  0.67828552  0.89768257  0.56245345    -0.60620
In417      In  0.99015574  0.67881330  0.56800025     1.36870
C418        C  0.98517267  0.66814784  0.53607438     0.77070
O419        O  0.92090239  0.64095826  0.56925022    -0.61380
O420        O  0.95398510  0.70232912  0.57689272    -0.52290
C421        C  0.01236740  0.64803269  0.59114923     0.69730
O422        O  0.01014225  0.63818070  0.57643344    -0.47150
C423        C  0.06017483  0.75110720  0.56814007     0.74440
O424        O  0.97612973  0.63928717  0.54557212    -0.59010
O425        O  0.02708475  0.74552486  0.57305637    -0.49100
O426        O  0.99429171  0.70043545  0.54308821    -0.55440
C427        C  0.91946003  0.67035663  0.57427720     0.84620
O428        O  0.99830342  0.66928346  0.59402776    -0.57330
O429        O  0.05716423  0.71928838  0.56330290    -0.60620
In430      In  0.72080649  0.69354095  0.56538411     1.36870
C431        C  0.72322406  0.76118244  0.56304367     0.77070
O432        O  0.74287374  0.70732758  0.54017607    -0.61380
O433        O  0.68325778  0.65493852  0.54375739    -0.52290
C434        C  0.77992566  0.68261968  0.57238362     0.69730
O435        O  0.78505651  0.71689192  0.57149841    -0.47150
C436        C  0.67284712  0.67125216  0.59112618     0.74440
O437        O  0.75376072  0.76105195  0.56766559    -0.59010
O438        O  0.66211978  0.64878017  0.57863599    -0.49100
O439        O  0.69235531  0.72675245  0.55924264    -0.55440
C440        C  0.71062663  0.67846822  0.53371083     0.84620
O441        O  0.74348874  0.65306503  0.56999261    -0.57330
O442        O  0.70908099  0.70180571  0.59090696    -0.60620
In443      In  0.70158354  0.96093205  0.43305416     1.36870
C444        C  0.67870141  0.95113565  0.46392962     0.77070
O445        O  0.66515304  0.89273339  0.42834503    -0.61380
O446        O  0.72918761  0.92800078  0.42515470    -0.52290
C447        C  0.68010857  0.98656441  0.40775955     0.69730
O448        O  0.65447651  0.96510450  0.41866791    -0.47150
C449        C  0.77312973  0.02971881  0.43853518     0.74440
O450        O  0.66407412  0.96298241  0.45349881    -0.59010
O451        O  0.76980415  0.99795582  0.43340926    -0.49100
O452        O  0.70215710  0.94180521  0.45824975    -0.55440
C453        C  0.69692264  0.89307730  0.42529247     0.84620
O454        O  0.71374633  0.99009793  0.40898936    -0.57330
O455        O  0.73954348  0.02554984  0.44135015    -0.60620
In456      In  0.71230501  0.69055516  0.43194194     1.36870
C457        C  0.78033846  0.69371840  0.43639731     0.77070
O458        O  0.72728921  0.71626696  0.45660892    -0.61380
O459        O  0.67712937  0.65482197  0.45437528    -0.52290
C460        C  0.70062751  0.74873475  0.42466986     0.69730
O461        O  0.73471446  0.75274915  0.42365149    -0.47150
C462        C  0.69036359  0.64008209  0.40696955     0.74440
O463        O  0.78054542  0.72371553  0.43097913    -0.59010
O464        O  0.66634710  0.63194082  0.41879345    -0.49100
O465        O  0.74535490  0.66293503  0.43945588    -0.55440
C466        C  0.70170196  0.68378699  0.46374220     0.84620
O467        O  0.67133187  0.71335610  0.42844579    -0.57330
O468        O  0.72249937  0.67524079  0.40724336    -0.60620
In469      In  0.65898057  0.01577340  0.90127865     1.36870
C470        C  0.64846298  0.99805518  0.86989394     0.77070
O471        O  0.59078880  0.97851784  0.90647043    -0.61380
O472        O  0.62364394  0.04270076  0.90622638    -0.52290
C473        C  0.68111445  0.98958127  0.92614113     0.69730
O474        O  0.67165672  0.97148812  0.91257807    -0.47150
C475        C  0.73065175  0.08580899  0.89969501     0.74440
O476        O  0.65020269  0.97502900  0.87997710    -0.59010
O477        O  0.70080599  0.08135656  0.90744418    -0.49100
O478        O  0.65064975  0.02830542  0.87612277    -0.55440
C479        C  0.58962511  0.00970976  0.90791875     0.84620
O480        O  0.67475862  0.01732623  0.92714453    -0.57330
O481        O  0.72372686  0.05439455  0.89253906    -0.60620
In482      In  0.95333709  0.31112151  0.76910275     1.36870
C483        C  0.96530399  0.31334905  0.80086864     0.77070
O484        O  0.97825800  0.37589646  0.77452009    -0.61380
O485        O  0.91750529  0.33891814  0.76557934    -0.52290
C486        C  0.00934283  0.33940027  0.74574035     0.69730
O487        O  0.01176520  0.32217301  0.75810042    -0.47150
C488        C  0.88992852  0.23554691  0.76270529     0.74440
O489        O  0.99057825  0.31503970  0.79086537    -0.59010
O490        O  0.89106864  0.26705020  0.75923616    -0.49100
O491        O  0.93369044  0.30821794  0.79450729    -0.55440
C492        C  0.94625400  0.37367542  0.77027721     0.84620
O493        O  0.97707429  0.33862940  0.74477220    -0.57330
O494        O  0.92292431  0.24270265  0.76855220    -0.60620
In495      In  0.65959212  0.01401982  0.76827441     1.36870
C496        C  0.65680368  0.00451376  0.80018633     0.77070
O497        O  0.72898228  0.04815575  0.76901322    -0.61380
O498        O  0.70120439  0.07608605  0.75886434    -0.52290
C499        C  0.63548736  0.95826705  0.74507391     0.69730
O500        O  0.63257245  0.94959520  0.75991308    -0.47150
C501        C  0.59447844  0.01763827  0.76649679     0.74440
O502        O  0.66445704  0.98408595  0.79082562    -0.59010
O503        O  0.62999628  0.04773855  0.76346542    -0.49100
O504        O  0.65434952  0.03115906  0.79315895    -0.55440
C505        C  0.73393438  0.07993841  0.76295489     0.84620
O506        O  0.65498452  0.99570210  0.74222833    -0.57330
O507        O  0.59280622  0.98602361  0.77021604    -0.60620
In508      In  0.94553168  0.58205638  0.89981541     1.36870
C509        C  0.87933865  0.58320174  0.89825107     0.77070
O510        O  0.94074500  0.59342519  0.92564668    -0.61380
O511        O  0.99091885  0.64116545  0.91239818    -0.52290
C512        C  0.95545856  0.52253067  0.90599548     0.69730
O513        O  0.92134994  0.51857987  0.90632203    -0.47150
C514        C  0.95625223  0.58887797  0.86801214     0.74440
O515        O  0.87812412  0.55199525  0.90269057    -0.59010
O516        O  0.98279315  0.61594874  0.87752929    -0.49100
O517        O  0.91428542  0.61283310  0.89430142    -0.55440
C518        C  0.97028240  0.63007750  0.92540163     0.84620
O519        O  0.98551184  0.55823114  0.90314674    -0.57330
O520        O  0.92674541  0.55851358  0.87507150    -0.60620
In521      In  0.95564943  0.31058249  0.90196239     1.36870
C522        C  0.96999154  0.32096952  0.87044553     0.77070
O523        O  0.91732662  0.24557536  0.89371269    -0.61380
O524        O  0.89010808  0.26880092  0.90835029    -0.52290
C525        C  0.98471896  0.28908359  0.92574031     0.69730
O526        O  0.00228242  0.29950040  0.91210603    -0.47150
C527        C  0.95944162  0.37863257  0.90766181     0.74440
O528        O  0.99635387  0.32364936  0.88013958    -0.59010
O529        O  0.92751101  0.34365650  0.90864533    -0.49100
O530        O  0.93738911  0.31280239  0.87702622    -0.55440
C531        C  0.88586678  0.23872266  0.90099666     0.84620
O532        O  0.95681440  0.29513539  0.92761240    -0.57330
O533        O  0.99143952  0.37914117  0.90509499    -0.60620
In534      In  0.94468713  0.58448772  0.76579038     1.36870
C535        C  0.94418234  0.51777284  0.76670045     0.77070
O536        O  0.95909541  0.58740280  0.73960534    -0.61380
O537        O  0.00718972  0.62910674  0.75534048    -0.52290
C538        C  0.88384550  0.59319889  0.75994650     0.69730
O539        O  0.88172535  0.56058159  0.75777929    -0.47150
C540        C  0.94837097  0.59223063  0.79778174     0.74440
O541        O  0.91354435  0.51748941  0.76185220    -0.59010
O542        O  0.97513733  0.62068023  0.78883364    -0.49100
O543        O  0.97418373  0.55201283  0.77109354    -0.55440
C544        C  0.99667571  0.61397084  0.74123028     0.84620
O545        O  0.91885839  0.62300043  0.76413693    -0.57330
O546        O  0.92007469  0.56229442  0.79009066    -0.60620
In547      In  0.67171236  0.59473391  0.76537917     1.36870
C548        C  0.68301038  0.61326366  0.79666276     0.77070
O549        O  0.60426667  0.55672105  0.77035218    -0.61380
O550        O  0.63339522  0.52728058  0.76326796    -0.52290
C551        C  0.65265544  0.62274492  0.74017588     0.69730
O552        O  0.65697000  0.63728127  0.75426160    -0.47150
C553        C  0.74162456  0.60173871  0.75920104     0.74440
O554        O  0.68342959  0.63719825  0.78643268    -0.59010
O555        O  0.70686967  0.56935762  0.75758949    -0.49100
O556        O  0.67672893  0.58093824  0.79075745    -0.55440
C557        C  0.60064611  0.52362327  0.76731059     0.84620
O558        O  0.66213318  0.59725535  0.73897903    -0.57330
O559        O  0.74077844  0.63221986  0.76303292    -0.60620
In560      In  0.67175528  0.59416519  0.89752128     1.36870
C561        C  0.67528207  0.60872301  0.86594789     0.77070
O562        O  0.73840227  0.62105662  0.89491391    -0.61380
O563        O  0.69941438  0.55824109  0.90004321    -0.52290
C564        C  0.69903254  0.64578062  0.92234010     0.69730
O565        O  0.69189614  0.65499824  0.90871013    -0.47150
C566        C  0.59594973  0.53021037  0.90305360     0.74440
O567        O  0.66974971  0.62915493  0.87616129    -0.59010
O568        O  0.62781840  0.53060143  0.90508542    -0.49100
O569        O  0.67648973  0.58029840  0.87197077    -0.55440
C570        C  0.73537648  0.58810864  0.89753576     0.84620
O571        O  0.68788513  0.60937014  0.92350559    -0.57330
O572        O  0.60277776  0.56394639  0.89864175    -0.60620
In573      In  0.37615491  0.29956445  0.89867783     1.36870
C574        C  0.37055770  0.30428421  0.86690742     0.77070
O575        O  0.40857803  0.36812333  0.89861258    -0.61380
O576        O  0.43825594  0.34192031  0.90855599    -0.52290
C577        C  0.31914015  0.27329251  0.92151074     0.69730
O578        O  0.31103571  0.27178043  0.90664645    -0.47150
C579        C  0.38167427  0.23584704  0.89824649     0.74440
O580        O  0.34734107  0.30762585  0.87646338    -0.59010
O581        O  0.41061967  0.27041172  0.90299419    -0.49100
O582        O  0.39583214  0.29910860  0.87376000    -0.55440
C583        C  0.44101375  0.37399613  0.90464521     0.84620
O584        O  0.35672482  0.29231515  0.92465965    -0.57330
O585        O  0.34998060  0.23422462  0.89422864    -0.60620
In586      In  0.37557619  0.29689811  0.76535313     1.36870
C587        C  0.36416187  0.29318840  0.79711548     0.77070
O588        O  0.33866787  0.22821771  0.76311350    -0.61380
O589        O  0.40166372  0.26263083  0.75745744    -0.52290
C590        C  0.34743443  0.31612175  0.74040835     0.69730
O591        O  0.32946466  0.30707517  0.75398173    -0.47150
C592        C  0.44524483  0.36924795  0.76649998     0.74440
O593        O  0.33678913  0.28832702  0.78744435    -0.59010
O594        O  0.44338581  0.33722796  0.76294875    -0.49100
O595        O  0.39477727  0.29708844  0.79030168    -0.55440
C596        C  0.36953246  0.22793339  0.75899039     0.84620
O597        O  0.37558999  0.31009748  0.73938422    -0.57330
O598        O  0.41122252  0.36398529  0.76957163    -0.60620
In599      In  0.38596810  0.02611154  0.76627745     1.36870
C600        C  0.37553803  0.01576302  0.79801396     0.77070
O601        O  0.41957760  0.99720065  0.77020706    -0.61380
O602        O  0.45363521  0.05897067  0.76284171    -0.52290
C603        C  0.35977569  0.97662537  0.74086550     0.69730
O604        O  0.34181558  0.96539059  0.75443629    -0.47150
C605        C  0.37406119  0.08464763  0.76048091     0.74440
O606        O  0.34716872  0.99225016  0.78823578    -0.59010
O607        O  0.40860313  0.08958403  0.75999986    -0.49100
O608        O  0.40691439  0.04536442  0.79150789    -0.55440
C609        C  0.45398862  0.02819040  0.76648889     0.84620
O610        O  0.38744402  0.01391420  0.74008054    -0.57330
O611        O  0.34486946  0.04876407  0.76357569    -0.60620
In612      In  0.38966433  0.02918872  0.89907144     1.36870
C613        C  0.39540875  0.09831303  0.89541378     0.77070
O614        O  0.41308236  0.03768895  0.87390224    -0.61380
O615        O  0.35014936  0.99245879  0.87771749    -0.52290
C616        C  0.44684842  0.01584493  0.90669206     0.69730
O617        O  0.45309148  0.05072496  0.90636928    -0.47150
C618        C  0.33828212  0.00558636  0.92384873     0.74440
O619        O  0.42407929  0.09701408  0.90156138    -0.59010
O620        O  0.33107015  0.98230888  0.91191269    -0.49100
O621        O  0.36523193  0.06447852  0.89066735    -0.55440
C622        C  0.37899392  0.01171918  0.86764937     0.84620
O623        O  0.41031528  0.98728113  0.90388033    -0.57330
O624        O  0.37276498  0.03858210  0.92366221    -0.60620
In625      In  0.15149958  0.63366997  0.66559482     1.36870
C626        C  0.15993264  0.57067382  0.66632212     0.77070
O627        O  0.20622223  0.68387636  0.65159504    -0.61380
O628        O  0.20507771  0.68848327  0.67721045    -0.52290
C629        C  0.10948017  0.63900949  0.64151686     0.69730
O630        O  0.12770375  0.62110458  0.63984416    -0.47150
C631        C  0.10507378  0.62533099  0.69108217     0.74440
O632        O  0.12901277  0.56834810  0.66077162    -0.59010
O633        O  0.14338701  0.64890384  0.69117833    -0.49100
O634        O  0.18703689  0.60528971  0.67155690    -0.55440
C635        C  0.22411359  0.70427697  0.66422205     0.84620
O636        O  0.11591954  0.65680946  0.65497089    -0.57330
O637        O  0.09083875  0.60436678  0.67835321    -0.60620
In638      In  0.33291417  0.81741607  0.66551046     1.36870
C639        C  0.39525478  0.80785967  0.66597667     0.77070
O640        O  0.37278619  0.87148704  0.68171509    -0.61380
O641        O  0.30989295  0.83420412  0.68702882    -0.52290
C642        C  0.32821870  0.86151116  0.64228316     0.69730
O643        O  0.34596933  0.84333124  0.64007600    -0.47150
C644        C  0.26357572  0.74371569  0.66421257     0.74440
O645        O  0.39447662  0.83320687  0.65712769    -0.59010
O646        O  0.28079813  0.76182702  0.67723841    -0.49100
O647        O  0.36385721  0.78671829  0.67459729    -0.55440
C648        C  0.34386034  0.86606446  0.69044937     0.84620
O649        O  0.31166345  0.85519172  0.65595466    -0.57330
O650        O  0.28246961  0.76260735  0.65153382    -0.60620
In651      In  0.33036032  0.45696171  0.66809781     1.36870
C652        C  0.27091166  0.47017846  0.66891501     0.77070
O653        O  0.37842249  0.51488259  0.68077068    -0.61380
O654        O  0.38078997  0.51188938  0.65511412    -0.52290
C655        C  0.33399876  0.41275446  0.69159144     0.69730
O656        O  0.30056782  0.40663635  0.68680609    -0.47150
C657        C  0.32159223  0.40799099  0.64361544     0.74440
O658        O  0.28189603  0.45993432  0.68128086    -0.59010
O659        O  0.35574449  0.43419353  0.64968690    -0.49100
O660        O  0.29137282  0.47528516  0.65630532    -0.55440
C661        C  0.39725202  0.53218170  0.66787209     0.84620
O662        O  0.36476050  0.44227569  0.68479907    -0.57330
O663        O  0.29206469  0.40723228  0.64997304    -0.60620
In664      In  0.16489744  0.46871601  0.66800394     1.36870
C665        C  0.12376425  0.42699672  0.69417949     0.77070
O666        O  0.21218729  0.46345074  0.68100218    -0.61380
O667        O  0.22397181  0.48312376  0.65663535    -0.52290
C668        C  0.12354763  0.42385340  0.64217464     0.69730
O669        O  0.10824605  0.41763439  0.65614657    -0.47150
C670        C  0.16315524  0.53544890  0.66674814     0.74440
O671        O  0.12674856  0.41048226  0.68163979    -0.59010
O672        O  0.19341470  0.53629869  0.67237272    -0.49100
O673        O  0.14306889  0.46524337  0.69340613    -0.55440
C674        C  0.23532597  0.47314101  0.66893248     0.84620
O675        O  0.16040139  0.45333239  0.64143560    -0.57330
O676        O  0.13488915  0.50127251  0.66161360    -0.60620
In677      In  0.49767592  0.80222212  0.66727678     1.36870
C678        C  0.54627939  0.84178393  0.64213652     0.77070
O679        O  0.50618932  0.75648880  0.67943825    -0.61380
O680        O  0.48361793  0.74357305  0.65548616    -0.52290
C681        C  0.53834885  0.84806544  0.69312947     0.69730
O682        O  0.55137385  0.85688753  0.67881052    -0.47150
C683        C  0.43064127  0.80449528  0.66633817     0.74440
O684        O  0.55849149  0.84639719  0.65657278    -0.59010
O685        O  0.43106518  0.77673906  0.67352394    -0.49100
O686        O  0.50843983  0.81541928  0.64035983    -0.55440
C687        C  0.49542020  0.73304940  0.66745483     0.84620
O688        O  0.50326266  0.81573291  0.69426008    -0.57330
O689        O  0.46370374  0.83008140  0.65953578    -0.60620
In690      In  0.51200540  0.63854860  0.66697801     1.36870
C691        C  0.49876551  0.69785465  0.66734074     0.77070
O692        O  0.56616159  0.67645928  0.65063825    -0.61380
O693        O  0.53034923  0.61314934  0.64685394    -0.52290
C694        C  0.55833125  0.63593194  0.68995603     0.69730
O695        O  0.55960976  0.66776743  0.68687351    -0.47150
C696        C  0.43663350  0.57161460  0.66767707     0.74440
O697        O  0.50800053  0.68644538  0.67985327    -0.59010
O698        O  0.45539908  0.58801035  0.65468404    -0.49100
O699        O  0.49478710  0.67800368  0.65466997    -0.55440
C700        C  0.56138306  0.64679159  0.64272733     0.84620
O701        O  0.53202660  0.60549624  0.68183940    -0.57330
O702        O  0.45546156  0.59057361  0.68040500    -0.60620
C703        C  0.31577084  0.88256837  0.71402765    -0.09670
C704        C  0.34839083  0.89487825  0.70322652     0.06530
C705        C  0.38328025  0.93500381  0.70440908    -0.03440
C706        C  0.38509059  0.96114804  0.71633589    -0.07890
C707        C  0.35298162  0.94853094  0.72740317     0.05640
C708        C  0.31779822  0.90879431  0.72604850    -0.02910
Br709      Br  0.27103948  0.88880620  0.73980106    -0.02610
H710        H  0.28837380  0.85219991  0.71316856     0.09550
H711        H  0.41256260  0.99150081  0.71718410     0.07570
Br712      Br  0.42951419  0.95708315  0.69012255    -0.03030
C713        C  0.33901491  0.99954996  0.82453894    -0.09670
C714        C  0.37376941  0.00926617  0.81566720     0.06530
C715        C  0.40814084  0.01548759  0.82397396    -0.03440
C716        C  0.40806455  0.01392719  0.84085930    -0.07890
C717        C  0.37423192  0.00624434  0.84986911     0.05640
C718        C  0.33913276  0.99843646  0.84156387    -0.02910
Br719      Br  0.29253596  0.99087038  0.85271683    -0.02610
H720        H  0.31259094  0.99501656  0.81827806     0.09550
H721        H  0.43513233  0.01971896  0.84702328     0.07570
Br722      Br  0.45612271  0.02576902  0.81294422    -0.03030
C723        C  0.30197051  0.35825843  0.71267816    -0.09670
C724        C  0.33698105  0.38718533  0.70387762     0.06530
C725        C  0.37411119  0.39041948  0.70681693    -0.03440
C726        C  0.37552025  0.36551832  0.71827075    -0.07890
C727        C  0.34101307  0.33742626  0.72732569     0.05640
C728        C  0.30380353  0.33371336  0.72443360    -0.02910
Br729      Br  0.25458824  0.29485624  0.73568293    -0.02610
H730        H  0.27309223  0.35489574  0.71051948     0.09550
H731        H  0.40456605  0.36922656  0.72048237     0.07570
Br732      Br  0.42478883  0.42783910  0.69593098    -0.03030
C733        C  0.40467204  0.15653382  0.75358326    -0.09670
C734        C  0.36964887  0.11915738  0.75808704     0.06530
C735        C  0.33315967  0.11711496  0.76114485    -0.03440
C736        C  0.33327471  0.15259781  0.76061107    -0.07890
C737        C  0.36911687  0.19041900  0.75703930     0.05640
C738        C  0.40490424  0.19181153  0.75303249    -0.02910
Br739      Br  0.45629479  0.24046421  0.74727656    -0.02610
H740        H  0.43282430  0.15878474  0.75088432     0.09550
H741        H  0.30544756  0.15073787  0.76356696     0.07570
Br742      Br  0.28259707  0.06774859  0.76680569    -0.03030
C743        C  0.35715890  0.12989908  0.89115525    -0.09670
C744        C  0.39467153  0.13516210  0.89477324     0.06530
C745        C  0.42838361  0.17427910  0.89889372    -0.03440
C746        C  0.42336198  0.20654408  0.89994152    -0.07890
C747        C  0.38522438  0.20071492  0.89701241     0.05640
C748        C  0.35186227  0.16171174  0.89248578    -0.02910
Br749      Br  0.29741194  0.14809241  0.88860182    -0.02610
H750        H  0.33085749  0.10017837  0.88789342     0.09550
H751        H  0.44955755  0.23641499  0.90311095     0.07570
Br752      Br  0.48211172  0.18628359  0.90288799    -0.03030
C753        C  0.33071816  0.28782379  0.84117733    -0.09670
C754        C  0.36855765  0.30517373  0.84908669     0.06530
C755        C  0.40407574  0.31974622  0.83975160    -0.03440
C756        C  0.40116555  0.31541544  0.82300128    -0.07890
C757        C  0.36340361  0.29681065  0.81497304     0.05640
C758        C  0.32782560  0.28342398  0.82420311    -0.02910
Br759      Br  0.27454864  0.25688888  0.81459611    -0.02610
H760        H  0.30314876  0.27618158  0.84824639     0.09550
H761        H  0.42910586  0.32698821  0.81619411     0.07570
Br762      Br  0.45806614  0.34700320  0.84894545    -0.03030
C763        C  0.55345019  0.45750479  0.91010238    -0.09670
C764        C  0.55483770  0.49214253  0.90516764     0.06530
C765        C  0.51768243  0.48807049  0.90140359    -0.03440
C766        C  0.48074347  0.44962216  0.90194666    -0.07890
C767        C  0.47981793  0.41471130  0.90617694     0.05640
C768        C  0.51696560  0.41930116  0.91054380    -0.02910
Br769      Br  0.52198626  0.37517296  0.91628156    -0.02610
H770        H  0.58138272  0.45970010  0.91316366     0.09550
H771        H  0.45271772  0.44691517  0.89860372     0.07570
Br772      Br  0.51498179  0.53301082  0.89493725    -0.03030
C773        C  0.61647267  0.60172881  0.71390783    -0.09670
C774        C  0.63380225  0.63071895  0.72644164     0.06530
C775        C  0.62864459  0.66325684  0.72616494    -0.03440
C776        C  0.60469518  0.66488560  0.71399235    -0.07890
C777        C  0.58537283  0.63441904  0.70202403     0.05640
C778        C  0.59248683  0.60314729  0.70184597    -0.02910
Br779      Br  0.57121823  0.56138384  0.68549498    -0.02610
H780        H  0.62030832  0.57667100  0.71375117     0.09550
H781        H  0.60047414  0.68968130  0.71410863     0.07570
Br782      Br  0.65384747  0.70660265  0.74178846    -0.03030
C783        C  0.52504113  0.48292188  0.76601546    -0.09670
C784        C  0.56108959  0.48404245  0.76799159     0.06530
C785        C  0.55845018  0.44727801  0.77001136    -0.03440
C786        C  0.52036727  0.41046986  0.76952105    -0.07890
C787        C  0.48436849  0.40925247  0.76721013     0.05640
C788        C  0.48689414  0.44605617  0.76554265    -0.02910
Br789      Br  0.44017304  0.44844291  0.76151504    -0.02610
H790        H  0.52657242  0.51085895  0.76436112     0.09550
H791        H  0.51891759  0.38255030  0.77110024     0.07570
Br792      Br  0.60508161  0.44483259  0.77421899    -0.03030
C793        C  0.66743954  0.63559607  0.82235458    -0.09670
C794        C  0.68802676  0.62067004  0.81427519     0.06530
C795        C  0.70841620  0.60716254  0.82342678    -0.03440
C796        C  0.70495497  0.60532341  0.84023732    -0.07890
C797        C  0.68166366  0.61704916  0.84836664     0.05640
C798        C  0.66416166  0.63395403  0.83935216    -0.02910
Br799      Br  0.63245639  0.65160385  0.84931423    -0.02610
H800        H  0.65172901  0.64612902  0.81541974     0.09550
H801        H  0.71994688  0.59370224  0.84698918     0.07570
Br802      Br  0.74129193  0.59045959  0.81363471    -0.03030
C803        C  0.06489799  0.63146585  0.73231462    -0.09670
C804        C  0.02615320  0.62264847  0.72811113     0.06530
C805        C  0.01426174  0.61567957  0.71164841    -0.03440
C806        C  0.04032024  0.61626581  0.69992950    -0.07890
C807        C  0.07861978  0.62410181  0.70416849     0.05640
C808        C  0.09100214  0.63206371  0.72055187    -0.02910
Br809      Br  0.14128432  0.64003747  0.72783847    -0.02610
H810        H  0.07409487  0.63576150  0.74493287     0.09550
H811        H  0.03065306  0.61087221  0.68735950     0.07570
Br812      Br  0.96328690  0.60607853  0.70427098    -0.03030
C813        C  0.85297582  0.63379531  0.75816024    -0.09670
C814        C  0.84771877  0.59563184  0.75834976     0.06530
C815        C  0.80756662  0.56032384  0.75795878    -0.03440
C816        C  0.77428498  0.56382389  0.75747696    -0.07890
C817        C  0.77925170  0.60176931  0.75775948     0.05640
C818        C  0.81927959  0.63718584  0.75791295    -0.02910
Br819      Br  0.83033306  0.69086128  0.75781099    -0.02610
H820        H  0.88348673  0.66123694  0.75844919     0.09550
H821        H  0.74393678  0.53613798  0.75755768     0.07570
Br822      Br  0.79449827  0.50582940  0.75941674    -0.03030
C823        C  0.80427026  0.54884873  0.90000087    -0.09670
C824        C  0.84283028  0.58490362  0.89782976     0.06530
C825        C  0.84545930  0.62164881  0.89556150    -0.03440
C826        C  0.80995942  0.62146624  0.89544102    -0.07890
C827        C  0.77137697  0.58548527  0.89762616     0.05640
C828        C  0.76868821  0.54871594  0.89992509    -0.02910
Br829      Br  0.71809834  0.49707282  0.90301210    -0.02610
H830        H  0.80165963  0.52040488  0.90176195     0.09550
H831        H  0.81276425  0.65002488  0.89375422     0.07570
Br832      Br  0.89596253  0.67378475  0.89308171    -0.03030
C833        C  0.92373000  0.55891639  0.84169864    -0.09670
C834        C  0.95696726  0.59151247  0.85002874     0.06530
C835        C  0.98726537  0.62519516  0.84098658    -0.03440
C836        C  0.98370752  0.62525322  0.82401404    -0.07890
C837        C  0.95021406  0.59241564  0.81577282     0.05640
C838        C  0.91982489  0.55898668  0.82495811    -0.02910
Br839      Br  0.87136519  0.51161187  0.81605193    -0.02610
H840        H  0.89979782  0.53278321  0.84828381     0.09550
H841        H  0.00741292  0.65108244  0.81723184     0.07570
Br842      Br  0.03394048  0.67194609  0.85085457    -0.03030
C843        C  0.92175124  0.44844049  0.90691112    -0.09670
C844        C  0.95830866  0.48695315  0.90789430     0.06530
C845        C  0.99546651  0.48959720  0.90962784    -0.03440
C846        C  0.99521123  0.45399114  0.90998761    -0.07890
C847        C  0.95850606  0.41550156  0.90859535     0.05640
C848        C  0.92139255  0.41312272  0.90705177    -0.02910
Br849      Br  0.86871855  0.36347025  0.90372384    -0.02610
H850        H  0.89289810  0.44555300  0.90538663     0.09550
H851        H  0.02394023  0.45647618  0.91114279     0.07570
Br852      Br  0.04741374  0.54036205  0.91161599    -0.03030
C853        C  0.57486070  0.89272317  0.73566125    -0.09670
C854        C  0.61375134  0.92733915  0.73221653     0.06530
C855        C  0.62795643  0.93435856  0.71612089    -0.03440
C856        C  0.60300050  0.90771958  0.70381430    -0.07890
C857        C  0.56333589  0.87390851  0.70705665     0.05640
C858        C  0.54947631  0.86626329  0.72329671    -0.02910
Br859      Br  0.49588905  0.82188331  0.72952612    -0.02610
H860        H  0.56321026  0.88733466  0.74795171     0.09550
H861        H  0.61473276  0.91399391  0.69153410     0.07570
Br862      Br  0.68131831  0.97954790  0.71016470    -0.03030
C863        C  0.56384292  0.05770637  0.76394093    -0.09670
C864        C  0.55823396  0.01975219  0.76613989     0.06530
C865        C  0.51827711  0.98512942  0.76836503    -0.03440
C866        C  0.48537362  0.98920790  0.76844616    -0.07890
C867        C  0.49085158  0.02708000  0.76631752     0.05640
C868        C  0.53072914  0.06173701  0.76402898    -0.02910
Br869      Br  0.54284591  0.11551677  0.76134728    -0.02610
H870        H  0.59430616  0.08466249  0.76231243     0.09550
H871        H  0.45501585  0.96213214  0.77012250     0.07570
Br872      Br  0.50522470  0.93094682  0.77116623    -0.03030
C873        C  0.05243436  0.34098328  0.72314203    -0.09670
C874        C  0.04237756  0.36168985  0.73384183     0.06530
C875        C  0.06175481  0.40386800  0.73220685    -0.03440
C876        C  0.08944489  0.42449662  0.71967772    -0.07890
C877        C  0.09813864  0.40381560  0.70832610     0.05640
C878        C  0.07996860  0.36157342  0.71036083    -0.02910
Br879      Br  0.09068196  0.32987085  0.69621195    -0.02610
H880        H  0.03772763  0.30851295  0.72436470     0.09550
H881        H  0.10315853  0.45684047  0.71852652     0.07570
Br882      Br  0.05143212  0.43507491  0.74670671    -0.03030
C883        C  0.98101340  0.44795002  0.77016129    -0.09670
C884        C  0.94408684  0.40967336  0.77013270     0.06530
C885        C  0.90693833  0.40722694  0.76923319    -0.03440
C886        C  0.90763550  0.44282487  0.76797998    -0.07890
C887        C  0.94478807  0.48100836  0.76754620     0.05640
C888        C  0.98183592  0.48331115  0.76847554    -0.02910
Br889      Br  0.03491404  0.53301295  0.76637811    -0.02610
H890        H  0.00976726  0.45054330  0.77109397     0.09550
H891        H  0.87895067  0.44062904  0.76753543     0.07570
Br892      Br  0.85437432  0.35688788  0.77053868    -0.03030
C893        C  0.95317869  0.33565214  0.82682659    -0.09670
C894        C  0.97185435  0.31901332  0.81857214     0.06530
C895        C  0.99483565  0.30797525  0.82748145    -0.03440
C896        C  0.99619281  0.31108427  0.84448054    -0.07890
C897        C  0.97511656  0.32528943  0.85270296     0.05640
C898        C  0.95490272  0.33922058  0.84364213    -0.02910
Br899      Br  0.92945355  0.36410048  0.85340486    -0.02610
H900        H  0.93673631  0.34578212  0.82014269     0.09550
H901        H  0.01196982  0.30044700  0.85130051     0.07570
Br902      Br  0.02203497  0.28554039  0.81733872    -0.03030
C903        C  0.81551982  0.19249547  0.75783599    -0.09670
C904        C  0.85161366  0.19446804  0.76103193     0.06530
C905        C  0.84890079  0.15783692  0.76382207    -0.03440
C906        C  0.81049152  0.12073889  0.76394575    -0.07890
C907        C  0.77428258  0.11915209  0.76134344     0.05640
C908        C  0.77735454  0.15585603  0.75810186    -0.02910
Br909      Br  0.73125644  0.16001386  0.75511920    -0.02610
H910        H  0.81661819  0.22007567  0.75574996     0.09550
H911        H  0.80893755  0.09305388  0.76635437     0.07570
Br912      Br  0.89599627  0.15603675  0.76756979    -0.03030
C913        C  0.83340231  0.17634077  0.88639871    -0.09670
C914        C  0.84700283  0.19888523  0.90086559     0.06530
C915        C  0.82258504  0.18355479  0.91488599    -0.03440
C916        C  0.78465942  0.14673602  0.91413475    -0.07890
C917        C  0.77072749  0.12443079  0.89964591     0.05640
C918        C  0.79536566  0.13934402  0.88566195    -0.02910
Br919      Br  0.77724813  0.11221624  0.86504765    -0.02610
H920        H  0.85186903  0.18812420  0.87552697     0.09550
H921        H  0.76622341  0.13508777  0.92502199     0.07570
Br922      Br  0.84047758  0.21013024  0.93561997    -0.03030
C923        C  0.66600616  0.97861894  0.82636023    -0.09670
C924        C  0.65045431  0.99801040  0.81790548     0.06530
C925        C  0.62931852  0.01169564  0.82668237    -0.03440
C926        C  0.62724294  0.00894439  0.84351684    -0.07890
C927        C  0.64518815  0.99222802  0.85210215     0.05640
C928        C  0.66346914  0.97555221  0.84335607    -0.02910
Br929      Br  0.68820665  0.95125075  0.85388414    -0.02610
H930        H  0.68151280  0.96716656  0.81981263     0.09550
H931        H  0.61215021  0.02094218  0.85001438     0.07570
Br932      Br  0.60166744  0.03400652  0.81675995    -0.03030
C933        C  0.51763442  0.04332341  0.91555024    -0.09670
C934        C  0.48063939  0.01017309  0.90947273     0.06530
C935        C  0.47865759  0.97461670  0.90489963    -0.03440
C936        C  0.51402552  0.97409201  0.90545979    -0.07890
C937        C  0.55164257  0.00846966  0.91042997     0.05640
C938        C  0.55278805  0.04282279  0.91611018    -0.02910
Br939      Br  0.60119286  0.09056668  0.92470649    -0.02610
H940        H  0.51967420  0.07053422  0.91949035     0.09550
H941        H  0.51251683  0.94740529  0.90115011     0.07570
Br942      Br  0.42997413  0.92690214  0.89656131    -0.03030
C943        C  0.73364297  0.82247752  0.42110572    -0.09670
C944        C  0.69716087  0.78406043  0.42265761     0.06530
C945        C  0.65996600  0.78166088  0.42366735    -0.03440
C946        C  0.66034697  0.81738708  0.42378839    -0.07890
C947        C  0.69722336  0.85591515  0.42302505     0.05640
C948        C  0.73422318  0.85799131  0.42142989    -0.02910
Br949      Br  0.78768973  0.90770897  0.42067127    -0.02610
H950        H  0.76259651  0.82528389  0.42030813     0.09550
H951        H  0.63165487  0.81498112  0.42496837     0.07570
Br952      Br  0.60773205  0.73110239  0.42524967    -0.03030
C953        C  0.61787372  0.62554473  0.61072189    -0.09670
C954        C  0.64485830  0.66458843  0.60453127     0.06530
C955        C  0.64436317  0.69733800  0.61108352    -0.03440
C956        C  0.61703409  0.69058990  0.62344643    -0.07890
C957        C  0.58983396  0.65161641  0.62969836     0.05640
C958        C  0.59095791  0.61887771  0.62339761    -0.02910
Br959      Br  0.55865062  0.56492293  0.63204412    -0.02610
H960        H  0.61834896  0.60030038  0.60592119     0.09550
H961        H  0.61677851  0.71611747  0.62805256     0.07570
Br962      Br  0.67826904  0.75184200  0.60303371    -0.03030
C963        C  0.74197389  0.70056351  0.50668496    -0.09670
C964        C  0.70646810  0.67504395  0.51575573     0.06530
C965        C  0.66894635  0.65044738  0.50739837    -0.03440
C966        C  0.66770102  0.65302505  0.49040315    -0.07890
C967        C  0.70319466  0.68013973  0.48155551     0.05640
C968        C  0.74080775  0.70335093  0.48991705    -0.02910
Br969      Br  0.79271561  0.73851177  0.47939607    -0.02610
H970        H  0.77129434  0.71917119  0.51269842     0.09550
H971        H  0.63874925  0.63452092  0.48413644     0.07570
Br972      Br  0.61828642  0.61412451  0.51832803    -0.03030
C973        C  0.02880495  0.64772029  0.62013279    -0.09670
C974        C  0.03292218  0.63922079  0.60395850     0.06530
C975        C  0.06080233  0.62822749  0.60045223    -0.03440
C976        C  0.08489897  0.62784231  0.61287988    -0.07890
C977        C  0.08221886  0.63844639  0.62889745     0.05640
C978        C  0.05280562  0.64734438  0.63252316    -0.02910
Br979      Br  0.04264664  0.65853285  0.65406751    -0.02610
H980        H  0.00735733  0.65577912  0.62316908     0.09550
H981        H  0.10669320  0.62022389  0.60988293     0.07570
Br982      Br  0.06976337  0.61581933  0.57895636    -0.03030
C983        C  0.88593910  0.70620072  0.58069332    -0.09670
C984        C  0.88151682  0.66974231  0.57608805     0.06530
C985        C  0.84209874  0.63607706  0.57201014    -0.03440
C986        C  0.80901379  0.64039712  0.57165237    -0.07890
C987        C  0.81426228  0.67780905  0.57519538     0.05640
C988        C  0.85320394  0.71064502  0.58023730    -0.02910
Br989      Br  0.86504764  0.76304823  0.58644309    -0.02610
H990        H  0.91564291  0.73233755  0.58415931     0.09550
H991        H  0.77929447  0.61467319  0.56795069     0.07570
Br992      Br  0.83113292  0.58387291  0.56628646    -0.03030
C993        C  0.64181431  0.91337734  0.61753819    -0.09670
C994        C  0.62532100  0.91557960  0.60279088     0.06530
C995        C  0.58228738  0.89305315  0.60113090    -0.03440
C996        C  0.55722323  0.86891489  0.61399176    -0.07890
C997        C  0.57394573  0.86645308  0.62863628     0.05640
C998        C  0.61693106  0.88911902  0.63028155    -0.02910
Br999      Br  0.64456244  0.88705820  0.64909755    -0.02610
H1000       H  0.67462540  0.92973085  0.61907777     0.09550
H1001       H  0.52435175  0.85208127  0.61253092     0.07570
Br1002     Br  0.55528349  0.89312188  0.58176787    -0.03030
C1003       C  0.75253097  0.87023900  0.56514729    -0.09670
C1004       C  0.71393636  0.86430304  0.56382008     0.06530
C1005       C  0.67906178  0.82440101  0.56187686    -0.03440
C1006       C  0.68350874  0.79192546  0.56127381    -0.07890
C1007       C  0.72193872  0.79771715  0.56277982     0.05640
C1008       C  0.75686531  0.83751201  0.56468593    -0.02910
Br1009     Br  0.81135385  0.84987486  0.56639850    -0.02610
H1010       H  0.77969352  0.90061169  0.56654437     0.09550
H1011       H  0.65623194  0.76158857  0.55996181     0.07570
Br1012     Br  0.62400444  0.81076385  0.56029519    -0.03030
C1013       C  0.67624670  0.98400257  0.50694773    -0.09670
C1014       C  0.67792318  0.95462345  0.51565528     0.06530
C1015       C  0.67314322  0.92106949  0.50730304    -0.03440
C1016       C  0.67014201  0.91904763  0.49043865    -0.07890
C1017       C  0.67159415  0.94988471  0.48155248     0.05640
C1018       C  0.67342564  0.98204829  0.48995053    -0.02910
Br1019     Br  0.67778221  0.02676388  0.47886157    -0.02610
H1020       H  0.67994915  0.00991287  0.51325258     0.09550
H1021       H  0.66840466  0.89401405  0.48416635     0.07570
Br1022     Br  0.67104436  0.87720277  0.51826104    -0.03030
C1023       C  0.09328808  0.37307439  0.60056125    -0.09670
C1024       C  0.05075981  0.34688990  0.60229613     0.06530
C1025       C  0.03243481  0.34714413  0.61688170    -0.03440
C1026       C  0.05670743  0.37307504  0.62951594    -0.07890
C1027       C  0.09952096  0.39854402  0.62804099     0.05640
C1028       C  0.11782470  0.39832111  0.61330361    -0.02910
Br1029     Br  0.17595875  0.42856589  0.61008341    -0.02610
H1030       H  0.10779798  0.37221737  0.58951799     0.09550
H1031       H  0.04192634  0.37290240  0.64063937     0.07570
Br1032     Br  0.97442417  0.31325927  0.61998136    -0.03030
C1033       C  0.84450726  0.08200938  0.57744702    -0.09670
C1034       C  0.80971326  0.08009426  0.57192992     0.06530
C1035       C  0.81362363  0.11677081  0.56790689    -0.03440
C1036       C  0.85213346  0.15364527  0.56856969    -0.07890
C1037       C  0.88730199  0.15511007  0.57327934     0.05640
C1038       C  0.88277393  0.11858688  0.57818489    -0.02910
Br1039     Br  0.92701865  0.11486509  0.58552075    -0.02610
H1040       H  0.84230778  0.05448786  0.58088194     0.09550
H1041       H  0.85469291  0.18121004  0.56493176     0.07570
Br1042     Br  0.76842447  0.11898481  0.56087894    -0.03030
C1043       C  0.84854952  0.06949722  0.43668463    -0.09670
C1044       C  0.81316855  0.06871880  0.44022612     0.06530
C1045       C  0.81710498  0.10552083  0.44418282    -0.03440
C1046       C  0.85549800  0.14195899  0.44363961    -0.07890
C1047       C  0.89054774  0.14288470  0.43931823     0.05640
C1048       C  0.88696974  0.10593250  0.43626963    -0.02910
Br1049     Br  0.93280196  0.10234093  0.43170141    -0.02610
H1050       H  0.84636846  0.04158391  0.43392370     0.09550
H1051       H  0.85770564  0.16995023  0.44626283     0.07570
Br1052     Br  0.77198935  0.10933915  0.45001336    -0.03030
C1053       C  0.04102561  0.27678252  0.49185492    -0.09670
C1054       C  0.01489550  0.28367028  0.48319646     0.06530
C1055       C  0.98858828  0.29113848  0.49173267    -0.03440
C1056       C  0.98708319  0.28906803  0.50873083    -0.07890
C1057       C  0.01130180  0.27930190  0.51731637     0.05640
C1058       C  0.03980738  0.27494161  0.50872677    -0.02910
Br1059     Br  0.07831519  0.26662824  0.51914031    -0.02610
H1060       H  0.06170172  0.27150194  0.48539606     0.09550
H1061       H  0.96536888  0.29285910  0.51515857     0.07570
Br1062     Br  0.95081766  0.29939627  0.48076825    -0.03030
C1063       C  0.14446151  0.29991928  0.43291169    -0.09670
C1064       C  0.10886939  0.26819473  0.42529857     0.06530
C1065       C  0.11022345  0.23719772  0.41741031    -0.03440
C1066       C  0.14547656  0.23684801  0.41828741    -0.07890
C1067       C  0.18017784  0.26700510  0.42680512     0.05640
C1068       C  0.17991561  0.29955376  0.43377111    -0.02910
Br1069     Br  0.22511221  0.34217984  0.44599116    -0.02610
H1070       H  0.14401861  0.32390995  0.43905746     0.09550
H1071       H  0.14533429  0.21207816  0.41256712     0.07570
Br1072     Br  0.06510479  0.19403036  0.40527419    -0.03030
C1073       C  0.27978704  0.33568647  0.60754852    -0.09670
C1074       C  0.30889998  0.32598064  0.60599522     0.06530
C1075       C  0.34208757  0.34316730  0.61675245    -0.03440
C1076       C  0.34602843  0.37028538  0.62879418    -0.07890
C1077       C  0.31679615  0.38011345  0.63042329     0.05640
C1078       C  0.28339617  0.36249920  0.61956418    -0.02910
Br1079     Br  0.24258355  0.37490490  0.61985724    -0.02610
H1080       H  0.25406138  0.32238848  0.59925808     0.09550
H1081       H  0.37157273  0.38304577  0.63713290     0.07570
Br1082     Br  0.38112679  0.32865737  0.61591710    -0.03030
C1083       C  0.17465384  0.28097080  0.56299819    -0.09670
C1084       C  0.17069084  0.24562017  0.56868802     0.06530
C1085       C  0.13239926  0.21361716  0.57456824    -0.03440
C1086       C  0.09926324  0.21764030  0.57450391    -0.07890
C1087       C  0.10340143  0.25310538  0.56879199     0.05640
C1088       C  0.14181449  0.28511916  0.56299474    -0.02910
Br1089     Br  0.15262865  0.33535177  0.55448197    -0.02610
H1090       H  0.20371793  0.30592555  0.55841585     0.09550
H1091       H  0.07004151  0.19280829  0.57902205     0.07570
Br1092     Br  0.12277548  0.16397296  0.58310290    -0.03030
C1093       C  0.32027584  0.26796257  0.49235859    -0.09670
C1094       C  0.28864299  0.26863591  0.48480694     0.06530
C1095       C  0.25926665  0.26891723  0.49446211    -0.03440
C1096       C  0.26076004  0.26677666  0.51131467    -0.07890
C1097       C  0.29126220  0.26437449  0.51888359     0.05640
C1098       C  0.32157284  0.26550837  0.50932108    -0.02910
Br1099     Br  0.36192684  0.25865211  0.51870299    -0.02610
H1100       H  0.34246619  0.26676225  0.48502730     0.09550
H1101       H  0.23740927  0.26616308  0.51856333     0.07570
Br1102     Br  0.21637710  0.27208839  0.48517885    -0.03030
C1103       C  0.30349377  0.92961153  0.62023307    -0.09670
C1104       C  0.32650185  0.93888627  0.60594252     0.06530
C1105       C  0.35209413  0.92447229  0.60418417    -0.03440
C1106       C  0.35229604  0.89953283  0.61617185    -0.07890
C1107       C  0.32757702  0.88862251  0.63007684     0.05640
C1108       C  0.30356187  0.90479491  0.63214979    -0.02910
Br1109     Br  0.26812922  0.89323881  0.65038275    -0.02610
H1110       H  0.28366715  0.94030744  0.62193597     0.09550
H1111       H  0.37176385  0.88840761  0.61452904     0.07570
Br1112     Br  0.38741873  0.93738507  0.58586356    -0.03030
C1113       C  0.14123942  0.86426944  0.57204316    -0.09670
C1114       C  0.17659787  0.86589098  0.56757651     0.06530
C1115       C  0.17291430  0.82959637  0.56290405    -0.03440
C1116       C  0.13469829  0.79294122  0.56320164    -0.07890
C1117       C  0.09944307  0.79120906  0.56792475     0.05640
C1118       C  0.10293441  0.82762762  0.57218153    -0.02910
Br1119     Br  0.05726906  0.83049579  0.57803766    -0.02610
H1120       H  0.14325695  0.89177691  0.57545972     0.09550
H1121       H  0.13268603  0.76547408  0.55971406     0.07570
Br1122     Br  0.21799442  0.82689786  0.55586885    -0.03030
C1123       C  0.26100717  0.08121770  0.58266804    -0.09670
C1124       C  0.29701433  0.08509503  0.57740024     0.06530
C1125       C  0.33079214  0.12397843  0.57307162    -0.03440
C1126       C  0.32681985  0.15702915  0.57300448    -0.07890
C1127       C  0.28969217  0.15226257  0.57711471     0.05640
C1128       C  0.25696122  0.11400842  0.58254093    -0.02910
Br1129     Br  0.20543039  0.10346416  0.58981122    -0.02610
H1130       H  0.23492140  0.05194441  0.58641855     0.09550
H1131       H  0.35250632  0.18631713  0.56904678     0.07570
Br1132     Br  0.38257295  0.13427935  0.56649644    -0.03030
C1133       C  0.85555454  0.72927715  0.43429269    -0.09670
C1134       C  0.81782529  0.69409383  0.43845867     0.06530
C1135       C  0.81678020  0.65958069  0.44373278    -0.03440
C1136       C  0.85257043  0.66029767  0.44382273    -0.07890
C1137       C  0.88993963  0.69472622  0.43886354     0.05640
C1138       C  0.89148280  0.73002426  0.43451156    -0.02910
Br1139     Br  0.94100156  0.78034988  0.42874252    -0.02610
H1140       H  0.85712877  0.75628318  0.43053528     0.09550
H1141       H  0.85079600  0.63310158  0.44744466     0.07570
Br1142     Br  0.76810529  0.60963543  0.45060829    -0.03030
C1143       C  0.96879973  0.63363157  0.49171262    -0.09670
C1144       C  0.99352626  0.67137187  0.48396772     0.06530
C1145       C  0.01675514  0.70669113  0.49356795    -0.03440
C1146       C  0.01351112  0.70405115  0.51036353    -0.07890
C1147       C  0.98768424  0.66680991  0.51818871     0.05640
C1148       C  0.96566799  0.63107413  0.50872641    -0.02910
Br1149     Br  0.92892306  0.57872433  0.51816117    -0.02610
H1150       H  0.95059641  0.60625523  0.48451529     0.09550
H1151       H  0.03156194  0.73176049  0.51739427     0.07570
Br1152     Br  0.05441528  0.75989013  0.48478243    -0.03030
C1153       C  0.23538386  0.06801524  0.43623038    -0.09670
C1154       C  0.27322110  0.07374137  0.43273210     0.06530
C1155       C  0.30760725  0.11330116  0.43000306    -0.03440
C1156       C  0.30400056  0.14617567  0.43142227    -0.07890
C1157       C  0.26656942  0.14073697  0.43535255     0.05640
C1158       C  0.23177930  0.10114891  0.43758332    -0.02910
Br1159     Br  0.17951644  0.09050163  0.44355004    -0.02610
H1160       H  0.20876463  0.03774783  0.43844479     0.09550
H1161       H  0.33077805  0.17636501  0.42921337     0.07570
Br1162     Br  0.36004448  0.12488199  0.42356950    -0.03030
C1163       C  0.33005545  0.98959759  0.49237233    -0.09670
C1164       C  0.29205787  0.97186488  0.48456239     0.06530
C1165       C  0.25662016  0.95686352  0.49398322    -0.03440
C1166       C  0.25966383  0.96076129  0.51075906    -0.07890
C1167       C  0.29754464  0.97944990  0.51871092     0.05640
C1168       C  0.33313306  0.99370871  0.50935319    -0.02910
Br1169     Br  0.38666075  0.02105053  0.51879740    -0.02610
H1170       H  0.35757593  0.00168197  0.48522288     0.09550
H1171       H  0.23175082  0.94868673  0.51764256     0.07570
Br1172     Br  0.20261090  0.92931677  0.48481707    -0.03030
C1173       C  0.14478242  0.85977334  0.42344710    -0.09670
C1174       C  0.18038533  0.86072044  0.42655612     0.06530
C1175       C  0.17678190  0.82347139  0.42874617    -0.03440
C1176       C  0.13804158  0.78674898  0.42826955    -0.07890
C1177       C  0.10230652  0.78610684  0.42569931     0.05640
C1178       C  0.10626139  0.82347464  0.42316716    -0.02910
Br1179     Br  0.06084437  0.82882599  0.42059704    -0.02610
H1180       H  0.14653736  0.88784312  0.42186636     0.09550
H1181       H  0.13582767  0.75858054  0.43027081     0.07570
Br1182     Br  0.22308769  0.82032456  0.43246093    -0.03030
C1183       C  0.69943654  0.07087142  0.37981576    -0.09670
C1184       C  0.66374021  0.05219318  0.37043242     0.06530
C1185       C  0.63235146  0.01118074  0.37367917    -0.03440
C1186       C  0.63735683  0.99017913  0.38616397    -0.07890
C1187       C  0.67363054  0.00898390  0.39521275     0.05640
C1188       C  0.70464283  0.04987961  0.39200001    -0.02910
Br1189     Br  0.75447119  0.07983869  0.40429805    -0.02610
H1190       H  0.72375253  0.10229271  0.37768902     0.09550
H1191       H  0.61343493  0.95869901  0.38844662     0.07570
Br1192     Br  0.58337401  0.98111839  0.36092815    -0.03030
C1193       C  0.89637593  0.29193388  0.38757889    -0.09670
C1194       C  0.90924663  0.29434629  0.37147146     0.06530
C1195       C  0.94516365  0.29512040  0.36855453    -0.03440
C1196       C  0.96637769  0.29227790  0.38152236    -0.07890
C1197       C  0.95300478  0.28904747  0.39755593     0.05640
C1198       C  0.91756829  0.28893406  0.40053627    -0.02910
Br1199     Br  0.89398693  0.28045268  0.42176271    -0.02610
H1200       H  0.86885693  0.29103822  0.39010092     0.09550
H1201       H  0.99341214  0.29223722  0.37903525     0.07570
Br1202     Br  0.96799780  0.30105177  0.34733622    -0.03030
C1203       C  0.89267560  0.57928900  0.39621746    -0.09670
C1204       C  0.93389601  0.59394725  0.39891241     0.06530
C1205       C  0.95252261  0.57921736  0.38926335    -0.03440
C1206       C  0.93021276  0.55143815  0.37672131    -0.07890
C1207       C  0.88909101  0.53734293  0.37382246     0.05640
C1208       C  0.87012834  0.55106413  0.38394727    -0.02910
Br1209     Br  0.81479397  0.53555742  0.38085627    -0.02610
H1210       H  0.87804226  0.59050806  0.40355627     0.09550
H1211       H  0.94527936  0.54134615  0.36902167     0.07570
Br1212     Br  0.00899359  0.59865888  0.39182243    -0.03030
C1213       C  0.70838864  0.57581120  0.37868293    -0.09670
C1214       C  0.67178797  0.55423159  0.36983345     0.06530
C1215       C  0.64100605  0.56151568  0.37327271    -0.03440
C1216       C  0.64691697  0.58876771  0.38567501    -0.07890
C1217       C  0.68369852  0.61034649  0.39434468     0.05640
C1218       C  0.71466348  0.60376141  0.39067868    -0.02910
Br1219     Br  0.76584135  0.63078171  0.40207244    -0.02610
H1220       H  0.73250246  0.57103457  0.37626217     0.09550
H1221       H  0.62325160  0.59413070  0.38818867     0.07570
Br1222     Br  0.59154749  0.53799328  0.36086476    -0.03030
C1223       C  0.40206947  0.06556670  0.40197917    -0.09670
C1224       C  0.37337650  0.02369763  0.39999624     0.06530
C1225       C  0.37213033  0.00513000  0.38524094    -0.03440
C1226       C  0.39855775  0.02860590  0.37265164    -0.07890
C1227       C  0.42613421  0.07093514  0.37428804     0.05640
C1228       C  0.42785929  0.08938672  0.38926717    -0.02910
Br1229     Br  0.46199563  0.14695374  0.39299931    -0.02610
H1230       H  0.40286510  0.08029664  0.41321068     0.09550
H1231       H  0.39690803  0.01357720  0.36138717     0.07570
Br1232     Br  0.33543652  0.94777678  0.38174583    -0.03030
C1233       C  0.36485486  0.25043952  0.37267459    -0.09670
C1234       C  0.40426393  0.28602483  0.37217266     0.06530
C1235       C  0.41492006  0.31676434  0.38379537    -0.03440
C1236       C  0.38644679  0.31120961  0.39559175    -0.07890
C1237       C  0.34692766  0.27557045  0.39606341     0.05640
C1238       C  0.33630724  0.24492362  0.38432089    -0.02910
Br1239     Br  0.28437825  0.19352862  0.38366778    -0.02610
H1240       H  0.35595401  0.22655725  0.36383886     0.09550
H1241       H  0.39551272  0.33477255  0.40458919     0.07570
Br1242     Br  0.46835796  0.36606837  0.38486625    -0.03030
C1243       C  0.98947448  0.34818120  0.28390383    -0.09670
C1244       C  0.97280578  0.32559554  0.26951990     0.06530
C1245       C  0.92979367  0.30029244  0.26806201    -0.03440
C1246       C  0.90491195  0.29810291  0.28080053    -0.07890
C1247       C  0.92165967  0.32122603  0.29507723     0.05640
C1248       C  0.96469601  0.34648745  0.29651408    -0.02910
Br1249     Br  0.99248607  0.37952272  0.31524573    -0.02610
H1250       H  0.02233459  0.36806129  0.28531094     0.09550
H1251       H  0.87204245  0.27852000  0.27938516     0.07570
Br1252     Br  0.90256416  0.26962612  0.24880586    -0.03030
C1253       C  0.06419904  0.33424594  0.17213718    -0.09670
C1254       C  0.03388788  0.33372733  0.18128651     0.06530
C1255       C  0.00216142  0.33352492  0.17321103    -0.03440
C1256       C  0.00153057  0.33427379  0.15618870    -0.07890
C1257       C  0.03277906  0.33624802  0.14712170     0.05640
C1258       C  0.06388099  0.33549199  0.15522873    -0.02910
Br1259     Br  0.10704652  0.33653415  0.14377860    -0.02610
H1260       H  0.08892561  0.33481586  0.17820395     0.09550
H1261       H  0.97810511  0.33587890  0.15008948     0.07570
Br1262     Br  0.96248850  0.33796298  0.18483438    -0.03030
C1263       C  0.39031767  0.29420410  0.26656879    -0.09670
C1264       C  0.35850499  0.29891370  0.27074180     0.06530
C1265       C  0.35005602  0.29991859  0.28731014    -0.03440
C1266       C  0.37448810  0.29837057  0.29919699    -0.07890
C1267       C  0.40772694  0.29582649  0.29506381     0.05640
C1268       C  0.41498594  0.29287893  0.27847074    -0.02910
Br1269     Br  0.45952188  0.28992556  0.27097611    -0.02610
H1270       H  0.39757894  0.29380212  0.25391762     0.09550
H1271       H  0.36761558  0.29969943  0.31182184     0.07570
Br1272     Br  0.30550224  0.30311385  0.29461319    -0.03030
C1273       C  0.13953283  0.30388105  0.23679462    -0.09670
C1274       C  0.14467043  0.34121655  0.24040760     0.06530
C1275       C  0.18353085  0.37390745  0.24562972    -0.03440
C1276       C  0.21619978  0.36931102  0.24633605    -0.07890
C1277       C  0.21183947  0.33284912  0.24178289     0.05640
C1278       C  0.17254612  0.29943406  0.23736408    -0.02910
Br1279     Br  0.16160904  0.24728900  0.23153909    -0.02610
H1280       H  0.10993745  0.27828268  0.23290724     0.09550
H1281       H  0.24582073  0.39532455  0.24995932     0.07570
Br1282     Br  0.19528925  0.42627650  0.25180619    -0.03030
C1283       C  0.19151452  0.39333839  0.09894217    -0.09670
C1284       C  0.15283163  0.35670061  0.09891678     0.06530
C1285       C  0.15011848  0.31961233  0.09950073    -0.03440
C1286       C  0.18560911  0.31993893  0.10045912    -0.07890
C1287       C  0.22425478  0.35646026  0.10056758     0.05640
C1288       C  0.22714901  0.39357432  0.09974184    -0.02910
Br1289     Br  0.27828929  0.44555369  0.10031712    -0.02610
H1290       H  0.19410666  0.42202305  0.09856238     0.09550
H1291       H  0.18288371  0.29117534  0.10074762     0.07570
Br1292     Br  0.09958225  0.26706143  0.09816540    -0.03030
C1293       C  0.31457718  0.30053495  0.15791412    -0.09670
C1294       C  0.31733102  0.33332198  0.14994390     0.06530
C1295       C  0.31511141  0.36206767  0.15928992    -0.03440
C1296       C  0.31279389  0.35900333  0.17608431    -0.07890
C1297       C  0.31212040  0.32760160  0.18421608     0.05640
C1298       C  0.31189817  0.29737909  0.17493063    -0.02910
Br1299     Br  0.30936880  0.25208876  0.18460115    -0.02610
H1300       H  0.31530290  0.27771076  0.15092816     0.09550
H1301       H  0.31174394  0.38191263  0.18286653     0.07570
Br1302     Br  0.31345435  0.40593872  0.15029374    -0.03030
C1303       C  0.47335016  0.45003856  0.09747764    -0.09670
C1304       C  0.43874384  0.44833780  0.09174401     0.06530
C1305       C  0.44368325  0.48466706  0.08629434    -0.03440
C1306       C  0.48164392  0.52134497  0.08754232    -0.07890
C1307       C  0.51567852  0.52355913  0.09416380     0.05640
C1308       C  0.51156876  0.48710433  0.09872834    -0.02910
Br1309     Br  0.55579313  0.48569833  0.10764328    -0.02610
H1310       H  0.47037844  0.42264698  0.10167510     0.09550
H1311       H  0.48415168  0.54873217  0.08363952     0.08830
Br1312     Br  0.40029738  0.48796152  0.07750774    -0.03030
C1313       C  0.64431352  0.05150151  0.27896759    -0.09670
C1314       C  0.65119339  0.04444318  0.29492716     0.06530
C1315       C  0.65506545  0.01150761  0.29787604    -0.03440
C1316       C  0.65093536  0.98605938  0.28508384    -0.07890
C1317       C  0.64356625  0.99290482  0.26921393     0.05640
C1318       C  0.64005076  0.02589950  0.26620940    -0.02910
Br1319     Br  0.62467327  0.03466251  0.24534586    -0.02610
H1320       H  0.64069940  0.07617350  0.27647616     0.09550
H1321       H  0.65317959  0.96051833  0.28756814     0.07570
Br1322     Br  0.66717224  0.99994014  0.31889622    -0.03030
C1323       C  0.65761502  0.56345771  0.26583685    -0.09670
C1324       C  0.65999906  0.59904747  0.27020166     0.06530
C1325       C  0.66607237  0.61098809  0.28661020    -0.03440
C1326       C  0.66818450  0.58668931  0.29831246    -0.07890
C1327       C  0.66376310  0.54989399  0.29409459     0.05640
C1328       C  0.65888839  0.53865930  0.27753363    -0.02910
Br1329     Br  0.65093320  0.48885026  0.26990265    -0.02610
H1330       H  0.65233092  0.55352964  0.25328952     0.09550
H1331       H  0.67256493  0.59640972  0.31087157     0.07570
Br1332     Br  0.67227457  0.66036388  0.29371847    -0.03030
C1333       C  0.47171831  0.52504531  0.22823605    -0.09670
C1334       C  0.50652318  0.52776501  0.23421260     0.06530
C1335       C  0.50299189  0.49258158  0.24012960    -0.03440
C1336       C  0.46509738  0.45552528  0.23983928    -0.07890
C1337       C  0.43028357  0.45281656  0.23390701     0.05640
C1338       C  0.43381751  0.48791751  0.22790935    -0.02910
Br1339     Br  0.38892259  0.48657594  0.21800703    -0.02610
H1340       H  0.47418931  0.55176281  0.22345549     0.09550
H1341       H  0.46265588  0.42879760  0.24459414     0.07570
Br1342     Br  0.54790095  0.49348245  0.24979704    -0.03030
C1343       C  0.64939323  0.62435718  0.17752890    -0.09670
C1344       C  0.64450672  0.65268494  0.18560707     0.06530
C1345       C  0.64042871  0.68017870  0.17656108    -0.03440
C1346       C  0.63874397  0.67749863  0.15968595    -0.07890
C1347       C  0.64084489  0.64747361  0.15150733     0.05640
C1348       C  0.64743833  0.62143437  0.16053550    -0.02910
Br1349     Br  0.64889873  0.57839922  0.15056545    -0.02610
H1350       H  0.65190221  0.60267642  0.18446851     0.09550
H1351       H  0.63442335  0.69825182  0.15292969     0.07570
Br1352     Br  0.63589244  0.72118546  0.18682210    -0.03030
C1353       C  0.65792621  0.78225736  0.23843697    -0.09670
C1354       C  0.62300378  0.74476422  0.24308472     0.06530
C1355       C  0.58778794  0.74365413  0.24786488    -0.03440
C1356       C  0.58757492  0.77876993  0.24707882    -0.07890
C1357       C  0.62164237  0.81574926  0.24158882     0.05640
C1358       C  0.65762766  0.81751111  0.23765817    -0.02910
Br1359     Br  0.70689993  0.86610936  0.23039427    -0.02610
H1360       H  0.68531668  0.78397958  0.23480530     0.09550
H1361       H  0.55981033  0.77668154  0.25039782     0.07570
Br1362     Br  0.53781817  0.69545343  0.25505149    -0.03030
C1363       C  0.57169570  0.77126342  0.09582978    -0.09670
C1364       C  0.60598362  0.80856590  0.10107513     0.06530
C1365       C  0.64094544  0.81015384  0.10648004    -0.03440
C1366       C  0.64095092  0.77504394  0.10637396    -0.07890
C1367       C  0.60687869  0.73782195  0.10104632     0.05640
C1368       C  0.57177632  0.73601694  0.09575468    -0.02910
Br1369     Br  0.52339324  0.68730544  0.08779751    -0.02610
H1370       H  0.54467408  0.76946047  0.09160529     0.09550
H1371       H  0.66807510  0.77701938  0.11058035     0.07570
Br1372     Br  0.69027398  0.85851119  0.11420254    -0.03030
C1373       C  0.57689380  0.90707999  0.15735344    -0.09670
C1374       C  0.61365726  0.92535974  0.14870497     0.06530
C1375       C  0.65054216  0.94130385  0.15735058    -0.03440
C1376       C  0.64980885  0.93825327  0.17433871    -0.07890
C1377       C  0.61269514  0.91866237  0.18288729     0.05640
C1378       C  0.57598667  0.90354355  0.17417523    -0.02910
Br1379     Br  0.52322900  0.87857163  0.18427440    -0.02610
H1380       H  0.54830713  0.89484233  0.15092791     0.09550
H1381       H  0.67818761  0.94993039  0.18082702     0.07570
Br1382     Br  0.70211691  0.96396256  0.14664422    -0.03030
C1383       C  0.51534677  0.96300443  0.09235745    -0.09670
C1384       C  0.50985545  0.92515294  0.08966209     0.06530
C1385       C  0.47024569  0.89136269  0.08587171    -0.03440
C1386       C  0.43737072  0.89557481  0.08575287    -0.07890
C1387       C  0.44228899  0.93269665  0.08946394     0.05640
C1388       C  0.48213566  0.96709726  0.09229545    -0.02910
Br1389     Br  0.49367669  0.02022675  0.09647578    -0.02610
H1390       H  0.54551231  0.98945249  0.09506096     0.09550
H1391       H  0.40723421  0.86880892  0.08328595     0.07570
Br1392     Br  0.45728754  0.83774179  0.08128123    -0.03030
C1393       C  0.40012599  0.04489616  0.26720550    -0.09670
C1394       C  0.37840737  0.00285809  0.27005880     0.06530
C1395       C  0.38148005  0.98946520  0.28554480    -0.03440
C1396       C  0.40573866  0.01770217  0.29751743    -0.07890
C1397       C  0.42793766  0.05962900  0.29464193     0.05640
C1398       C  0.42475136  0.07323219  0.27925855    -0.02910
Br1399     Br  0.45258706  0.12965919  0.27382015    -0.02610
H1400       H  0.39858752  0.05590663  0.25541209     0.09550
H1401       H  0.40771590  0.00647082  0.30919466     0.07570
Br1402     Br  0.35553094  0.93337651  0.29143048    -0.03030
C1403       C  0.46657740  0.88116853  0.24201342    -0.09670
C1404       C  0.49933056  0.90718094  0.23175115     0.06530
C1405       C  0.49689494  0.93492380  0.22194369    -0.03440
C1406       C  0.46274041  0.93689338  0.22293670    -0.07890
C1407       C  0.43033870  0.91158120  0.23342509     0.05640
C1408       C  0.43224253  0.88318104  0.24298270    -0.02910
Br1409     Br  0.39051215  0.84787604  0.25820909    -0.02610
H1410       H  0.46813966  0.85991518  0.24966888     0.09550
H1411       H  0.46141402  0.95826279  0.21525739     0.07570
Br1412     Br  0.53794665  0.97031657  0.20644393    -0.03030
C1413       C  0.34093277  0.90764862  0.17342832    -0.09670
C1414       C  0.33784147  0.93671146  0.18186425     0.06530
C1415       C  0.33909234  0.96777158  0.17293707    -0.03440
C1416       C  0.34149908  0.96786361  0.15589568    -0.07890
C1417       C  0.34310238  0.93766662  0.14756523     0.05640
C1418       C  0.34392680  0.90796939  0.15665479    -0.02910
Br1419     Br  0.35026626  0.86698145  0.14740525    -0.02610
H1420       H  0.34105070  0.88399740  0.17991885     0.09550
H1421       H  0.34136176  0.99117442  0.14914062     0.07570
Br1422     Br  0.33843544  0.01106124  0.18311146    -0.03030
C1423       C  0.92891413  0.58653693  0.27330013    -0.09670
C1424       C  0.95470346  0.57518995  0.26742922     0.06530
C1425       C  0.95168215  0.54077011  0.27400082    -0.03440
C1426       C  0.92362104  0.51870455  0.28630939    -0.07890
C1427       C  0.89898631  0.53086397  0.29266091     0.05640
C1428       C  0.90162423  0.56506411  0.28604727    -0.02910
Br1429     Br  0.86769920  0.58271233  0.29356260    -0.02610
H1430       H  0.93057332  0.61255895  0.26819379     0.09550
H1431       H  0.92187183  0.49248574  0.29127135     0.07570
Br1432     Br  0.98412087  0.52143983  0.26635208    -0.03030
C1433       C  0.08190091  0.53312396  0.22875916    -0.09670
C1434       C  0.04309648  0.52672104  0.22739174     0.06530
C1435       C  0.00846902  0.48668386  0.22551906    -0.03440
C1436       C  0.01327947  0.45443898  0.22529583    -0.07890
C1437       C  0.05189629  0.46070002  0.22693390     0.05640
C1438       C  0.08663825  0.50066408  0.22850605    -0.02910
Br1439     Br  0.14134732  0.51349677  0.22986918    -0.02610
H1440       H  0.10891135  0.56365400  0.22999566     0.09550
H1441       H  0.98616358  0.42394257  0.22413112     0.07570
Br1442     Br  0.95330505  0.47259626  0.22363425    -0.03030
C1443       C  0.14163758  0.77554976  0.23742906    -0.09670
C1444       C  0.14088956  0.74069782  0.23310544     0.06530
C1445       C  0.17800497  0.74509197  0.22895472    -0.03440
C1446       C  0.21456861  0.78308146  0.22976310    -0.07890
C1447       C  0.21572956  0.81788835  0.23431330     0.05640
C1448       C  0.17867995  0.81402082  0.23804992    -0.02910
Br1449     Br  0.17693326  0.85946287  0.24476413    -0.02610
H1450       H  0.11344910  0.77280500  0.24054546     0.09550
H1451       H  0.24246607  0.78545334  0.22641159     0.07570
Br1452     Br  0.18152974  0.70141458  0.22089747    -0.03030
C1453       C  0.15005889  0.77208566  0.10272759    -0.09670
C1454       C  0.14930571  0.73745120  0.09816412     0.06530
C1455       C  0.18621690  0.74197042  0.09355398    -0.03440
C1456       C  0.22242930  0.78054886  0.09338027    -0.07890
C1457       C  0.22314980  0.81524918  0.09782099     0.05640
C1458       C  0.18629809  0.81064391  0.10263945    -0.02910
Br1459     Br  0.18234868  0.85489623  0.10938000    -0.02610
H1460       H  0.12213147  0.76930533  0.10635657     0.09550
H1461       H  0.25036117  0.78326842  0.08981213     0.07570
Br1462     Br  0.19040293  0.69731666  0.08778285    -0.03030
C1463       C  0.99469149  0.58544214  0.17220198    -0.09670
C1464       C  0.00782881  0.62189023  0.18041156     0.06530
C1465       C  0.01807371  0.65647564  0.17146622    -0.03440
C1466       C  0.01660446  0.65456638  0.15449208    -0.07890
C1467       C  0.00513895  0.61856569  0.14631717     0.05640
C1468       C  0.99334299  0.58360047  0.15526511    -0.02910
Br1469     Br  0.97899017  0.53392548  0.14479178    -0.02610
H1470       H  0.98738197  0.55882298  0.17898399     0.09550
H1471       H  0.02717527  0.68197933  0.14764565     0.07570
Br1472     Br  0.04007708  0.70820368  0.18172576    -0.03030
C1473       C  0.04310238  0.51001474  0.10782030    -0.09670
C1474       C  0.02674670  0.51820353  0.09451045     0.06530
C1475       C  0.01073997  0.49084375  0.08131529    -0.03440
C1476       C  0.01272352  0.45648743  0.08144369    -0.07890
C1477       C  0.03072890  0.44950196  0.09456118     0.05640
C1478       C  0.04495150  0.47594958  0.10797963    -0.02910
Br1479     Br  0.06629416  0.46626920  0.12704545    -0.02610
H1480       H  0.05484901  0.53049828  0.11814619     0.09550
H1481       H  0.00171649  0.43617027  0.07107267     0.07570
Br1482     Br  0.98960123  0.50107479  0.06238537    -0.03030
C1483       C  0.71082195  0.71793350  0.03644375    -0.09670
C1484       C  0.75308685  0.73923986  0.03909395     0.06530
C1485       C  0.76724722  0.73459981  0.05413987    -0.03440
C1486       C  0.73914631  0.70968056  0.06612698    -0.07890
C1487       C  0.69677719  0.68882971  0.06353520     0.05640
C1488       C  0.68278522  0.69315128  0.04835921    -0.02910
Br1489     Br  0.62612668  0.66787139  0.04285134    -0.02610
H1490       H  0.69925203  0.72083578  0.02498682     0.09550
H1491       H  0.75063150  0.70703122  0.07765097     0.07570
Br1492     Br  0.82416872  0.76022454  0.05914733    -0.03030
C1493       C  0.74750395  0.73803078  0.95043207    -0.09670
C1494       C  0.77100695  0.72991934  0.96043006     0.06530
C1495       C  0.77116967  0.69501973  0.95758020    -0.03440
C1496       C  0.74686288  0.66802981  0.94530053    -0.07890
C1497       C  0.72237577  0.67526795  0.93548738     0.05640
C1498       C  0.72315919  0.71096173  0.93800060    -0.02910
Br1499     Br  0.68985930  0.72294368  0.92564617    -0.02610
H1500       H  0.74705023  0.76477043  0.95263951     0.09550
H1501       H  0.74782175  0.64153722  0.94320676     0.07570
Br1502     Br  0.80600192  0.68411751  0.96947894    -0.03030
C1503       C  0.67121874  0.93593488  0.04538737    -0.09670
C1504       C  0.68621917  0.95004650  0.06113797     0.06530
C1505       C  0.72829822  0.96825121  0.06417331    -0.03440
C1506       C  0.75398216  0.97136895  0.05164898    -0.07890
C1507       C  0.73860392  0.95590216  0.03609320     0.05640
C1508       C  0.69682477  0.93868313  0.03293103    -0.02910
Br1509     Br  0.67297449  0.91969155  0.01179646    -0.02610
H1510       H  0.63907283  0.92193328  0.04277915     0.09550
H1511       H  0.78602015  0.98475096  0.05425114     0.07570
Br1512     Br  0.75233268  0.98611059  0.08532790    -0.03030
C1513       C  0.72389625  0.94446930  0.95376657    -0.09670
C1514       C  0.75074158  0.97833866  0.96358779     0.06530
C1515       C  0.75255344  0.01467107  0.96126633    -0.03440
C1516       C  0.72832101  0.01642542  0.94941749    -0.07890
C1517       C  0.70223383  0.98301682  0.93939668     0.05640
C1518       C  0.69991022  0.94656756  0.94171807    -0.02910
Br1519     Br  0.66358989  0.89846993  0.92932223    -0.02610
H1520       H  0.72150087  0.91611136  0.95542932     0.09550
H1521       H  0.73098620  0.04492114  0.94770451     0.07570
Br1522     Br  0.78781113  0.06395177  0.97330064    -0.03030
C1523       C  0.26515113  0.21529383  0.04240362    -0.09670
C1524       C  0.22466947  0.20332368  0.03935056     0.06530
C1525       C  0.20703984  0.21865243  0.04938138    -0.03440
C1526       C  0.23036658  0.24645411  0.06163605    -0.07890
C1527       C  0.27097940  0.25909596  0.06441368     0.05640
C1528       C  0.28820263  0.24270423  0.05493660    -0.02910
Br1529     Br  0.34378565  0.25933884  0.05778428    -0.02610
H1530       H  0.27918697  0.20385981  0.03483298     0.09550
H1531       H  0.21686540  0.25897708  0.06890483     0.07570
Br1532     Br  0.15261702  0.20584964  0.04636125    -0.03030
C1533       C  0.29752178  0.26759664  0.95014770    -0.09670
C1534       C  0.28779154  0.25219778  0.93426893     0.06530
C1535       C  0.25104010  0.21409512  0.93147820    -0.03440
C1536       C  0.22576922  0.19183392  0.94454150    -0.07890
C1537       C  0.23607534  0.20678275  0.96047841     0.05640
C1538       C  0.27211528  0.24551947  0.96318956    -0.02910
Br1539     Br  0.29071557  0.26877728  0.98443444    -0.02610
H1540       H  0.32587103  0.29651968  0.95251820     0.09550
H1541       H  0.19822292  0.16218559  0.94224290     0.07570
Br1542     Br  0.23531698  0.18867095  0.91048096    -0.03030
C1543       C  0.97896172  0.22459036  0.04114444    -0.09670
C1544       C  0.01420609  0.22828229  0.03480313     0.06530
C1545       C  0.05290210  0.26041289  0.04049232    -0.03440
C1546       C  0.05541929  0.28748378  0.05213338    -0.07890
C1547       C  0.02024424  0.28324083  0.05861593     0.05640
C1548       C  0.98171036  0.25153071  0.05300232    -0.02910
Br1549     Br  0.93226298  0.24503698  0.06052232    -0.02610
H1550       H  0.94896427  0.20059923  0.03687123     0.09550
H1551       H  0.08531521  0.31147721  0.05654919     0.07570
Br1552     Br  0.10391198  0.26948549  0.03337844    -0.03030
C1553       C  0.02984724  0.25366341  0.95673678    -0.09670
C1554       C  0.99482694  0.21540668  0.96081419     0.06530
C1555       C  0.95764331  0.20196226  0.95275167    -0.03440
C1556       C  0.95587534  0.22704292  0.94149543    -0.07890
C1557       C  0.99047350  0.26522430  0.93765863     0.05640
C1558       C  0.02790105  0.27850058  0.94517335    -0.02910
Br1559     Br  0.07595012  0.33101212  0.94076754    -0.02610
H1560       H  0.05863976  0.26468015  0.96277834     0.09550
H1561       H  0.92708495  0.21634816  0.93547841     0.07570
Br1562     Br  0.90795582  0.14948489  0.95586884    -0.03030
C1563       C  0.27166526  0.95320857  0.03245308    -0.09670
C1564       C  0.25227047  0.97332467  0.03593060     0.06530
C1565       C  0.25984226  0.99316443  0.05108423    -0.03440
C1566       C  0.28366709  0.98968538  0.06272986    -0.07890
C1567       C  0.30071941  0.96712843  0.05957680     0.05640
C1568       C  0.29571182  0.95006564  0.04392957    -0.02910
Br1569     Br  0.31900493  0.92049802  0.03713482    -0.02610
H1570       H  0.26739241  0.93877074  0.02075431     0.09550
H1571       H  0.28756910  0.00349625  0.07454094     0.07570
Br1572     Br  0.23852905  0.02497909  0.05691231    -0.03030
C1573       C  0.26735377  0.01629126  0.95099057    -0.09670
C1574       C  0.25365495  0.98408038  0.96181327     0.06530
C1575       C  0.26797843  0.95839750  0.96000879    -0.03440
C1576       C  0.29457296  0.96475563  0.94724343    -0.07890
C1577       C  0.30811413  0.99708951  0.93650593     0.05640
C1578       C  0.29436935  0.02299040  0.93850254    -0.02910
Br1579     Br  0.31058643  0.06747615  0.92421938    -0.02610
H1580       H  0.25687316  0.03635178  0.95219298     0.09550
H1581       H  0.30582837  0.94534827  0.94604982     0.07570
Br1582     Br  0.25565472  0.91674309  0.97535301    -0.03030
C1583       C  0.02270891  0.70194968  0.03328086    -0.09670
C1584       C  0.99761373  0.71629799  0.03611966     0.06530
C1585       C  0.97361693  0.70384830  0.05035428    -0.03440
C1586       C  0.97720728  0.67985298  0.06176017    -0.07890
C1587       C  0.00400624  0.66730944  0.05928827     0.05640
C1588       C  0.02605699  0.67772414  0.04454461    -0.02910
Br1589     Br  0.06260605  0.66166040  0.03884592    -0.02610
H1590       H  0.04071175  0.71029091  0.02228184     0.09550
H1591       H  0.95954281  0.67178525  0.07283917     0.07570
Br1592     Br  0.93480883  0.71756399  0.05497707    -0.03030
C1593       C  0.01570168  0.72098567  0.95392517    -0.09670
C1594       C  0.98057617  0.71229406  0.96240784     0.06530
C1595       C  0.94295262  0.67548502  0.95902029    -0.03440
C1596       C  0.94123532  0.64895480  0.94734369    -0.07890
C1597       C  0.97611836  0.65800879  0.93868317     0.05640
C1598       C  0.01375069  0.69435385  0.94213460    -0.02910
Br1599     Br  0.06360893  0.70828541  0.93176884    -0.02610
H1600       H  0.04505853  0.74864804  0.95650579     0.09550
H1601       H  0.91186672  0.62127124  0.94473122     0.07570
Br1602     Br  0.89245049  0.65852152  0.96974081    -0.03030
loop_ 
_geom_bond_atom_site_label_1 
_geom_bond_atom_site_label_2 
_geom_bond_distance 
_geom_bond_site_symmetry_2 
_ccdc_geom_bond_type 
In1           O3   2.265   1_655  S
In1           O4   2.233   1_654  S
In1          O12   2.234   1_655  S
In1           O6   2.264       .  S
In1           O8   2.240       .  S
In1           O9   2.243   1_654  S
In1          O10   2.274   1_554  S
In1          O13   2.250   1_554  S
C2            O8   1.259       .  A
C2           O10   1.259   1_554  A
C2           C72   1.468       .  S
O3           C11   1.261       .  A
O4           C11   1.258   1_556  A
C5           O12   1.258   1_655  A
C5            O6   1.262       .  A
C5         C1584   1.485       .  S
C7            O9   1.259   1_655  A
C7           O13   1.260       .  A
C7         C1594   1.484       .  S
C11          C20   1.465       .  S
In14         O16   2.257   1_565  S
In14         O17   2.246       .  S
In14         O25   2.225   1_556  S
In14         O19   2.263   1_556  S
In14         O21   2.237   1_566  S
In14         O22   2.239       .  S
In14         O23   2.269   1_565  S
In14         O26   2.268   1_556  S
C15          O21   1.259   1_556  A
C15          O23   1.261       .  A
C15          C50   1.467       .  S
O16          C24   1.262   1_545  A
O17          C24   1.257       .  A
C18          O25   1.258       .  A
C18          O19   1.261       .  A
C18        C1564   1.484       .  S
C20          O22   1.257   1_554  A
C20          O26   1.259       .  A
C24        C1574   1.480       .  S
In27         O29   2.252   1_556  S
In27         O30   2.258   1_456  S
In27         O38   2.231   1_455  S
In27         O32   2.267       .  S
In27         O34   2.249       .  S
In27         O35   2.242   1_456  S
In27         O36   2.262   1_556  S
In27         O39   2.259   1_455  S
C28          O34   1.260       .  A
C28          O36   1.260   1_556  A
C28          C46   1.469       .  S
O29          C37   1.258       .  A
O30          C37   1.258   1_655  A
C31          O38   1.257       .  A
C31          O32   1.260   1_655  A
C31        C1554   1.484       .  S
C33          O35   1.261   1_556  A
C33          O39   1.262       .  A
C33          C54   1.468       .  S
C37        C1544   1.488       .  S
In40         O42   2.241   1_556  S
In40         O43   2.283       .  S
In40         O51   2.241   1_556  S
In40         O45   2.243   1_556  S
In40         O47   2.236       .  S
In40         O48   2.271   1_556  S
In40         O49   2.254       .  S
In40         O52   2.251       .  S
C41          O47   1.258       .  A
C41          O49   1.263       .  A
C41        C1537   1.480       .  S
O42          C50   1.253   1_554  A
O43          C50   1.260       .  A
C44          O51   1.262       .  A
C44          O45   1.261       .  A
C44        C1524   1.479       .  S
C46          O48   1.261   1_556  A
C46          O52   1.257       .  A
In53         O55   2.273   1_556  S
In53         O56   2.250       .  S
In53         O64   2.255   1_556  S
In53         O58   2.251   1_556  S
In53         O60   2.243   1_566  S
In53         O61   2.262       .  S
In53         O62   2.267   1_565  S
In53         O65   2.239   1_565  S
C54          O60   1.258   1_556  A
C54          O62   1.262       .  A
O55          C63   1.258       .  A
O56          C63   1.257   1_556  A
C57          O64   1.259       .  A
C57          O58   1.258       .  A
C57        C1507   1.479       .  S
C59          O61   1.261       .  A
C59          O65   1.260   1_565  A
C59        C1514   1.489       .  S
C63          C76   1.469       .  S
In66         O68   2.242   1_554  S
In66         O69   2.279       .  S
In66         O77   2.250       .  S
In66         O71   2.235       .  S
In66         O73   2.229   1_554  S
In66         O74   2.289   1_554  S
In66         O75   2.258   1_554  S
In66         O78   2.235       .  S
C67          O73   1.259       .  A
C67          O75   1.260       .  A
C67        C1494   1.469       .  S
O68          C76   1.256   1_556  A
O69          C76   1.262       .  A
C70          O77   1.261       .  A
C70          O71   1.262       .  A
C70        C1484   1.485       .  S
C72          O74   1.261   1_554  A
C72          O78   1.252       .  A
In79         O81   2.270       .  S
In79         O82   2.212       .  S
In79         O90   2.223       .  S
In79         O84   2.253   1_455  S
In79         O86   2.268   1_455  S
In79         O87   2.234       .  S
In79         O88   2.214       .  S
In79         O91   2.229       .  S
C80          O86   1.264   1_455  A
C80          O88   1.256       .  A
C80        C1467   1.465       .  S
O81          C89   1.263       .  A
O82          C89   1.257       .  A
C83          O90   1.258       .  A
C83          O84   1.264   1_455  A
C83        C1587   1.486       .  S
C85          O87   1.260       .  A
C85          O91   1.261       .  A
C85        C1454   1.478       .  S
C89        C1474   1.469       .  S
In92         O94   2.283       .  S
In92         O95   2.216       .  S
In92        O103   2.235       .  S
In92         O97   2.272   1_455  S
In92         O99   2.273       .  S
In92        O100   2.231       .  S
In92        O101   2.223       .  S
In92        O104   2.218       .  S
C93          O99   1.264       .  A
C93         O101   1.255       .  A
C93        C1464   1.470       .  S
O94         C102   1.262       .  A
O95         C102   1.255       .  A
C96         O103   1.256   1_655  A
C96          O97   1.261       .  A
C96        C1424   1.474       .  S
C98         O100   1.264       .  A
C98         O104   1.262       .  A
C98        C1434   1.475       .  S
C102       C1444   1.482       .  S
In105       O107   2.221       .  S
In105       O108   2.237       .  S
In105       O116   2.221       .  S
In105       O110   2.264       .  S
In105       O112   2.285       .  S
In105       O113   2.204       .  S
In105       O114   2.191       .  S
In105       O117   2.281       .  S
C106        O112   1.267       .  A
C106        O114   1.257       .  A
C106       C1414   1.485       .  S
O107        C115   1.261       .  A
O108        C115   1.260       .  A
C109        O116   1.256       .  A
C109        O110   1.263       .  A
C109       C1394   1.486   1_565  S
C111        O113   1.258       .  A
C111        O117   1.266       .  A
C111       C1447   1.483       .  S
C115       C1407   1.472       .  S
In118       O120   2.223       .  S
In118       O121   2.251       .  S
In118       O129   2.254       .  S
In118       O123   2.211       .  S
In118       O125   2.242       .  S
In118       O126   2.264       .  S
In118       O127   2.200       .  S
In118       O130   2.211       .  S
C119        O125   1.265       .  A
C119        O127   1.257       .  A
C119       C1364   1.474       .  S
O120        C128   1.260       .  A
O121        C128   1.265       .  A
C122        O129   1.266       .  A
C122        O123   1.259       .  A
C122       C1384   1.484       .  S
C124        O126   1.266       .  A
C124        O130   1.260       .  A
C124       C1374   1.479       .  S
C128       C1504   1.482       .  S
In131       O133   2.234       .  S
In131       O134   2.229       .  S
In131       O142   2.207       .  S
In131       O136   2.265       .  S
In131       O138   2.283       .  S
In131       O139   2.208       .  S
In131       O140   2.186       .  S
In131       O143   2.263       .  S
C132        O138   1.268       .  A
C132        O140   1.254       .  A
C132       C1417   1.481       .  S
O133        C141   1.261       .  A
O134        C141   1.262       .  A
C135        O142   1.255       .  A
C135        O136   1.265       .  A
C135       C1567   1.483       .  S
C137        O139   1.259       .  A
C137        O143   1.264       .  A
C137       C1387   1.484       .  S
C141       C1457   1.479       .  S
In144       O146   2.235       .  S
In144       O147   2.248       .  S
In144       O155   2.252       .  S
In144       O149   2.245       .  S
In144       O151   2.266       .  S
In144       O152   2.221       .  S
In144       O153   2.220       .  S
In144       O156   2.269       .  S
C145        O151   1.262       .  A
C145        O153   1.257       .  A
C145       C1344   1.467       .  S
O146        C154   1.257       .  A
O147        C154   1.260       .  A
C148        O155   1.261       .  A
C148        O149   1.260       .  A
C148       C1324   1.480       .  S
C150        O152   1.258       .  A
C150        O156   1.266       .  A
C150       C1354   1.490       .  S
C154       C1334   1.471       .  S
In157       O159   2.237       .  S
In157       O160   2.252       .  S
In157       O168   2.255       .  S
In157       O162   2.227       .  S
In157       O164   2.251       .  S
In157       O165   2.268       .  S
In157       O166   2.199       .  S
In157       O169   2.211       .  S
C158        O164   1.266       .  A
C158        O166   1.257       .  A
C158       C1404   1.471       .  S
O159        C167   1.260       .  A
O160        C167   1.264       .  A
C161        O168   1.264       .  A
C161        O162   1.263       .  A
C161       C1357   1.489       .  S
C163        O165   1.267       .  A
C163        O169   1.259       .  A
C163       C1377   1.481       .  S
C167       C1317   1.477       .  S
In170       O172   2.215       .  S
In170       O173   2.236       .  S
In170       O181   2.226       .  S
In170       O175   2.266       .  S
In170       O177   2.276       .  S
In170       O178   2.214       .  S
In170       O179   2.213       .  S
In170       O182   2.272       .  S
C171        O177   1.265       .  A
C171        O179   1.256       .  A
C171       C1347   1.477       .  S
O172        C180   1.261       .  A
O173        C180   1.261       .  A
C174        O181   1.256       .  A
C174        O175   1.263       .  A
C174       C1487   1.487       .  S
C176        O178   1.259       .  A
C176        O182   1.264       .  A
C176       C1307   1.487       .  S
C180       C1367   1.474       .  S
In183       O185   2.277       .  S
In183       O186   2.210       .  S
In183       O194   2.211       .  S
In183       O188   2.281       .  S
In183       O190   2.280       .  S
In183       O191   2.232       .  S
In183       O192   2.203       .  S
In183       O195   2.224       .  S
C184        O190   1.265       .  A
C184        O192   1.255       .  A
C184       C1294   1.482       .  S
O185        C193   1.265       .  A
O186        C193   1.255       .  A
C187        O194   1.254       .  A
C187        O188   1.265       .  A
C187       C1527   1.472       .  S
C189        O191   1.261       .  A
C189        O195   1.262       .  A
C189       C1287   1.472       .  S
C193       C1304   1.487       .  S
In196       O198   2.267       .  S
In196       O199   2.220       .  S
In196       O207   2.235       .  S
In196       O201   2.260       .  S
In196       O203   2.284       .  S
In196       O204   2.237       .  S
In196       O205   2.197       .  S
In196       O208   2.238       .  S
C197        O203   1.266       .  A
C197        O205   1.257       .  A
C197       C1297   1.484       .  S
O198        C206   1.264       .  A
O199        C206   1.260       .  A
C200        O207   1.259       .  A
C200        O201   1.263       .  A
C200       C1264   1.484       .  S
C202        O204   1.260       .  A
C202        O208   1.260       .  A
C202       C1337   1.470       .  S
C206       C1277   1.489       .  S
In209       O211   2.224       .  S
In209       O212   2.261       .  S
In209       O220   2.262       .  S
In209       O214   2.221       .  S
In209       O216   2.245       .  S
In209       O217   2.265   1_455  S
In209       O218   2.204       .  S
In209       O221   2.228       .  S
C210        O216   1.263       .  A
C210        O218   1.259       .  A
C210       C1437   1.473       .  S
O211        C219   1.260       .  A
O212        C219   1.265       .  A
C213        O220   1.266       .  A
C213        O214   1.260       .  A
C213       C1274   1.487       .  S
C215        O217   1.266   1_455  A
C215        O221   1.260       .  A
C215       C1244   1.491   1_455  S
C219       C1254   1.474       .  S
In222       O224   2.212       .  S
In222       O225   2.273       .  S
In222       O233   2.254       .  S
In222       O227   2.219       .  S
In222       O229   2.242       .  S
In222       O230   2.256       .  S
In222       O231   2.197       .  S
In222       O234   2.219       .  S
C223        O229   1.268       .  A
C223        O231   1.260       .  A
C223       C1284   1.473       .  S
O224        C232   1.258       .  A
O225        C232   1.267       .  A
C226        O233   1.262       .  A
C226        O227   1.261       .  A
C226       C1477   1.466       .  S
C228        O230   1.267       .  A
C228        O234   1.261       .  A
C228       C1547   1.476       .  S
C232       C1257   1.472       .  S
In235       O237   2.264       .  S
In235       O238   2.254       .  S
In235       O246   2.245       .  S
In235       O240   2.267       .  S
In235       O242   2.256       .  S
In235       O243   2.261       .  S
In235       O244   2.283       .  S
In235       O247   2.258       .  S
C236        O242   1.258       .  A
C236        O244   1.259       .  A
C236        C254   1.475       .  S
O237        C245   1.261       .  A
O238        C245   1.261       .  A
C239        O246   1.259       .  A
C239        O240   1.261       .  A
C239       C1267   1.489       .  S
C241        O243   1.259       .  A
C241        O247   1.261       .  A
C241       C1234   1.488       .  S
C245        C262   1.472       .  S
In248       O250   2.262       .  S
In248       O251   2.280       .  S
In248       O259   2.265       .  S
In248       O253   2.220       .  S
In248       O255   2.234       .  S
In248       O256   2.286       .  S
In248       O257   2.261       .  S
In248       O260   2.249       .  S
C249        O255   1.259       .  A
C249        O257   1.262       .  A
C249       C1227   1.486       .  S
O250        C258   1.255       .  A
O251        C258   1.258       .  A
C252        O259   1.264       .  A
C252        O253   1.260       .  A
C252       C1397   1.485       .  S
C254        O256   1.262       .  A
C254        O260   1.256       .  A
C258        C310   1.474       .  S
In261       O263   2.247       .  S
In261       O264   2.267       .  S
In261       O272   2.257       .  S
In261       O266   2.252       .  S
In261       O268   2.259       .  S
In261       O269   2.262       .  S
In261       O270   2.268       .  S
In261       O273   2.284       .  S
C262        O268   1.258       .  A
C262        O270   1.259       .  A
O263        C271   1.257       .  A
O264        C271   1.263       .  A
C265        O272   1.264       .  A
C265        O266   1.260       .  A
C265       C1214   1.489       .  S
C267        O269   1.258       .  A
C267        O273   1.259       .  A
C267        C284   1.477       .  S
C271       C1327   1.490       .  S
In274       O276   2.254       .  S
In274       O277   2.286       .  S
In274       O285   2.249       .  S
In274       O279   2.245       .  S
In274       O281   2.249       .  S
In274       O282   2.289       .  S
In274       O283   2.252       .  S
In274       O286   2.249       .  S
C275        O281   1.259       .  A
C275        O283   1.261       .  A
C275       C1207   1.480       .  S
O276        C284   1.256       .  A
O277        C284   1.263       .  A
C278        O285   1.262       .  A
C278        O279   1.260       .  A
C278       C1427   1.474       .  S
C280        O282   1.264       .  A
C280        O286   1.257       .  A
C280        C293   1.478       .  S
In287       O289   2.254       .  S
In287       O290   2.270       .  S
In287       O298   2.258       .  S
In287       O292   2.259       .  S
In287       O294   2.252       .  S
In287       O295   2.258       .  S
In287       O296   2.276       .  S
In287       O299   2.293       .  S
C288        O294   1.257       .  A
C288        O296   1.261       .  A
C288        C301   1.473       .  S
O289        C297   1.256       .  A
O290        C297   1.261       .  A
C291        O298   1.261       .  A
C291        O292   1.261       .  A
C291       C1247   1.492       .  S
C293        O295   1.256       .  A
C293        O299   1.259       .  A
C297       C1194   1.487       .  S
In300       O302   2.278       .  S
In300       O303   2.264       .  S
In300       O311   2.250       .  S
In300       O305   2.275       .  S
In300       O307   2.256       .  S
In300       O308   2.259       .  S
In300       O309   2.274       .  S
In300       O312   2.240       .  S
C301        O307   1.259       .  A
C301        O309   1.260       .  A
O302        C310   1.258       .  A
O303        C310   1.256       .  A
C304        O311   1.255       .  A
C304        O305   1.262       .  A
C304       C1314   1.485       .  S
C306        O308   1.263       .  A
C306        O312   1.264       .  A
C306       C1184   1.486       .  S
In313       O315   2.219   1_565  S
In313       O316   2.249   1_565  S
In313       O324   2.248       .  S
In313       O318   2.248   1_565  S
In313       O320   2.272       .  S
In313       O321   2.219       .  S
In313       O322   2.206       .  S
In313       O325   2.270       .  S
C314        O320   1.265       .  A
C314        O322   1.256       .  A
C314       C1164   1.473       .  S
O315        C323   1.257       .  A
O316        C323   1.261       .  A
C317        O324   1.259   1_545  A
C317        O318   1.259       .  A
C317       C1224   1.475       .  S
C319        O321   1.261       .  A
C319        O325   1.265       .  A
C319       C1174   1.490       .  S
C323       C1154   1.470       .  S
In326       O328   2.277   1_655  S
In326       O329   2.226   1_655  S
In326       O337   2.222       .  S
In326       O331   2.286       .  S
In326       O333   2.278       .  S
In326       O334   2.230       .  S
In326       O335   2.203       .  S
In326       O338   2.224       .  S
C327        O333   1.266       .  A
C327        O335   1.256       .  A
C327       C1144   1.479       .  S
O328        C336   1.263       .  A
O329        C336   1.256       .  A
C330        O337   1.254       .  A
C330        O331   1.264       .  A
C330       C1204   1.476       .  S
C332        O334   1.261       .  A
C332        O338   1.263       .  A
C332       C1137   1.476       .  S
C336       C1177   1.490       .  S
In339       O341   2.228       .  S
In339       O342   2.236       .  S
In339       O350   2.216       .  S
In339       O344   2.262       .  S
In339       O346   2.273       .  S
In339       O347   2.207   1_565  S
In339       O348   2.196       .  S
In339       O351   2.260   1_565  S
C340        O346   1.266       .  A
C340        O348   1.258       .  A
C340       C1167   1.481       .  S
O341        C349   1.259       .  A
O342        C349   1.262       .  A
C343        O350   1.259       .  A
C343        O344   1.263       .  A
C343       C1104   1.485       .  S
C345        O347   1.260       .  A
C345        O351   1.264       .  A
C345       C1124   1.483       .  S
C349       C1114   1.479       .  S
In352       O354   2.251       .  S
In352       O355   2.219       .  S
In352       O363   2.226       .  S
In352       O357   2.259       .  S
In352       O359   2.273       .  S
In352       O360   2.237       .  S
In352       O361   2.220       .  S
In352       O364   2.201       .  S
C353        O359   1.266       .  A
C353        O361   1.258       .  A
C353       C1097   1.474       .  S
O354        C362   1.263       .  A
O355        C362   1.258       .  A
C356        O363   1.258       .  A
C356        O357   1.265       .  A
C356       C1074   1.468       .  S
C358        O360   1.265       .  A
C358        O364   1.263       .  A
C358       C1084   1.475       .  S
C362       C1127   1.480       .  S
In365       O367   2.235       .  S
In365       O368   2.238       .  S
In365       O376   2.247       .  S
In365       O370   2.256       .  S
In365       O372   2.263   1_655  S
In365       O373   2.215   1_655  S
In365       O374   2.211   1_655  S
In365       O377   2.271   1_655  S
C366        O372   1.265       .  A
C366        O374   1.259       .  A
C366       C1054   1.470       .  S
O367        C375   1.258       .  A
O368        C375   1.258       .  A
C369        O376   1.259       .  A
C369        O370   1.260       .  A
C369       C1197   1.481       .  S
C371        O373   1.258       .  A
C371        O377   1.266       .  A
C371       C1064   1.484       .  S
C375       C1047   1.476       .  S
In378       O380   2.223       .  S
In378       O381   2.269       .  S
In378       O389   2.259       .  S
In378       O383   2.224       .  S
In378       O385   2.250       .  S
In378       O386   2.266       .  S
In378       O387   2.205       .  S
In378       O390   2.222       .  S
C379        O385   1.263       .  A
C379        O387   1.259       .  A
C379       C1157   1.470       .  S
O380        C388   1.258       .  A
O381        C388   1.267       .  A
C382        O389   1.265       .  A
C382        O383   1.262       .  A
C382       C1067   1.484       .  S
C384        O386   1.265       .  A
C384        O390   1.260       .  A
C384       C1094   1.474       .  S
C388       C1237   1.490       .  S
In391       O393   2.213       .  S
In391       O394   2.248       .  S
In391       O402   2.251       .  S
In391       O396   2.243       .  S
In391       O398   2.272   1_455  S
In391       O399   2.214   1_455  S
In391       O400   2.208       .  S
In391       O403   2.270   1_455  S
C392        O398   1.265   1_455  A
C392        O400   1.256       .  A
C392       C1057   1.476       .  S
O393        C401   1.255       .  A
O394        C401   1.262       .  A
C395        O402   1.259       .  A
C395        O396   1.258       .  A
C395       C1024   1.472       .  S
C397        O399   1.258       .  A
C397        O403   1.267       .  A
C397       C1037   1.490       .  S
C401       C1087   1.474       .  S
In404       O406   2.273   1_565  S
In404       O407   2.224   1_565  S
In404       O415   2.234       .  S
In404       O409   2.262       .  S
In404       O411   2.276       .  S
In404       O412   2.242       .  S
In404       O413   2.215       .  S
In404       O416   2.218       .  S
C405        O411   1.264       .  A
C405        O413   1.256       .  A
C405       C1014   1.473       .  S
O406        C414   1.263       .  A
O407        C414   1.259       .  A
C408        O415   1.259       .  A
C408        O409   1.260       .  A
C408        C994   1.488       .  S
C410        O412   1.263       .  A
C410        O416   1.258       .  A
C410       C1004   1.477       .  S
C414       C1034   1.490       .  S
In417       O419   2.269       .  S
In417       O420   2.211       .  S
In417       O428   2.235       .  S
In417       O422   2.260   1_655  S
In417       O424   2.278       .  S
In417       O425   2.235   1_655  S
In417       O426   2.200       .  S
In417       O429   2.232   1_655  S
C418        O424   1.266       .  A
C418        O426   1.258       .  A
C418       C1147   1.480       .  S
O419        C427   1.264       .  A
O420        C427   1.259       .  A
C421        O428   1.259   1_455  A
C421        O422   1.261       .  A
C421        C974   1.487       .  S
C423        O425   1.260       .  A
C423        O429   1.261       .  A
C423       C1117   1.479       .  S
C427        C984   1.486       .  S
In430       O432   2.202       .  S
In430       O433   2.275       .  S
In430       O441   2.259       .  S
In430       O435   2.214       .  S
In430       O437   2.239       .  S
In430       O438   2.266       .  S
In430       O439   2.209       .  S
In430       O442   2.215       .  S
C431        O437   1.264       .  A
C431        O439   1.262       .  A
C431       C1007   1.476       .  S
O432        C440   1.260       .  A
O433        C440   1.267       .  A
C434        O441   1.265       .  A
C434        O435   1.259       .  A
C434        C987   1.484       .  S
C436        O438   1.267       .  A
C436        O442   1.258       .  A
C436        C954   1.476       .  S
C440        C964   1.487       .  S
In443       O445   2.279       .  S
In443       O446   2.205       .  S
In443       O454   2.215       .  S
In443       O448   2.284       .  S
In443       O450   2.269       .  S
In443       O451   2.233       .  S
In443       O452   2.219       .  S
In443       O455   2.234   1_565  S
C444        O450   1.263       .  A
C444        O452   1.258       .  A
C444       C1017   1.475       .  S
O445        C453   1.267       .  A
O446        C453   1.255       .  A
C447        O454   1.255       .  A
C447        O448   1.265       .  A
C447       C1187   1.478   1_565  S
C449        O451   1.261   1_545  A
C449        O455   1.258       .  A
C449       C1044   1.478       .  S
C453        C947   1.489       .  S
In456       O458   2.200       .  S
In456       O459   2.277       .  S
In456       O467   2.261       .  S
In456       O461   2.217       .  S
In456       O463   2.242       .  S
In456       O464   2.271       .  S
In456       O465   2.204       .  S
In456       O468   2.220       .  S
C457        O463   1.267       .  A
C457        O465   1.259       .  A
C457       C1134   1.476       .  S
O458        C466   1.258       .  A
O459        C466   1.269       .  A
C460        O467   1.265       .  A
C460        O461   1.262       .  A
C460        C944   1.489       .  S
C462        O464   1.268       .  A
C462        O468   1.259       .  A
C462       C1217   1.478       .  S
C466        C967   1.481       .  S
In469       O471   2.273   1_545  S
In469       O472   2.207       .  S
In469       O480   2.213       .  S
In469       O474   2.276   1_545  S
In469       O476   2.272   1_545  S
In469       O477   2.227       .  S
In469       O478   2.202       .  S
In469       O481   2.242       .  S
C470        O476   1.267       .  A
C470        O478   1.259   1_565  A
C470        C927   1.479       .  S
O471        C479   1.266   1_565  A
O472        C479   1.256       .  A
C473        O480   1.257   1_565  A
C473        O474   1.265       .  A
C473       C1517   1.483       .  S
C475        O477   1.259       .  A
C475        O481   1.260       .  A
C475        C917   1.466       .  S
C479        C937   1.481       .  S
In482       O484   2.223       .  S
In482       O485   2.238       .  S
In482       O493   2.229       .  S
In482       O487   2.275   1_655  S
In482       O489   2.268       .  S
In482       O490   2.227       .  S
In482       O491   2.213       .  S
In482       O494   2.275       .  S
C483        O489   1.264       .  A
C483        O491   1.259       .  A
C483        C894   1.477       .  S
O484        C492   1.262       .  A
O485        C492   1.262       .  A
C486        O493   1.255   1_455  A
C486        O487   1.262       .  A
C486        C874   1.470       .  S
C488        O490   1.258       .  A
C488        O494   1.261       .  A
C488        C904   1.488       .  S
C492        C884   1.475       .  S
In495       O497   2.278       .  S
In495       O498   2.208       .  S
In495       O506   2.239   1_545  S
In495       O500   2.256   1_545  S
In495       O502   2.275   1_545  S
In495       O503   2.242       .  S
In495       O504   2.203       .  S
In495       O507   2.219   1_545  S
C496        O502   1.266   1_545  A
C496        O504   1.256       .  A
C496        C924   1.481   1_545  S
O497        C505   1.267       .  A
O498        C505   1.256       .  A
C499        O506   1.258       .  A
C499        O500   1.260       .  A
C499        C854   1.478       .  S
C501        O503   1.261       .  A
C501        O507   1.256   1_545  A
C501        C864   1.474       .  S
C505        C907   1.488       .  S
In508       O510   2.204       .  S
In508       O511   2.256       .  S
In508       O519   2.256       .  S
In508       O513   2.207       .  S
In508       O515   2.237       .  S
In508       O516   2.271       .  S
In508       O517   2.207       .  S
In508       O520   2.191       .  S
C509        O515   1.266       .  A
C509        O517   1.259       .  A
C509        C824   1.475       .  S
O510        C518   1.259       .  A
O511        C518   1.268       .  A
C512        O519   1.265       .  A
C512        O513   1.262       .  A
C512        C844   1.483       .  S
C514        O516   1.268       .  A
C514        O520   1.260       .  A
C514        C834   1.486       .  S
C518       C1597   1.477       .  S
In521       O523   2.246       .  S
In521       O524   2.221       .  S
In521       O532   2.212       .  S
In521       O526   2.271   1_655  S
In521       O528   2.269       .  S
In521       O529   2.200       .  S
In521       O530   2.197       .  S
In521       O533   2.274       .  S
C522        O528   1.267       .  A
C522        O530   1.258       .  A
C522        C897   1.474       .  S
O523        C531   1.262       .  A
O524        C531   1.260       .  A
C525        O532   1.256       .  A
C525        O526   1.264   1_655  A
C525       C1557   1.469       .  S
C527        O529   1.254       .  A
C527        O533   1.265       .  A
C527        C847   1.482       .  S
C531        C914   1.466       .  S
In534       O536   2.218       .  S
In534       O537   2.258   1_655  S
In534       O545   2.258       .  S
In534       O539   2.206       .  S
In534       O541   2.243       .  S
In534       O542   2.275       .  S
In534       O543   2.203       .  S
In534       O546   2.189       .  S
C535        O541   1.265       .  A
C535        O543   1.258       .  A
C535        C887   1.471       .  S
O536        C544   1.259       .  A
O537        C544   1.266   1_455  A
C538        O545   1.266       .  A
C538        O539   1.259       .  A
C538        C814   1.483       .  S
C540        O542   1.269       .  A
C540        O546   1.256       .  A
C540        C837   1.485       .  S
C544        C804   1.480   1_655  S
In547       O549   2.246       .  S
In547       O550   2.229       .  S
In547       O558   2.222       .  S
In547       O552   2.262       .  S
In547       O554   2.273       .  S
In547       O555   2.206       .  S
In547       O556   2.202       .  S
In547       O559   2.269       .  S
C548        O554   1.265       .  A
C548        O556   1.257       .  A
C548        C794   1.472       .  S
O549        C557   1.261       .  A
O550        C557   1.258       .  A
C551        O558   1.258       .  A
C551        O552   1.263       .  A
C551        C774   1.483       .  S
C553        O555   1.259       .  A
C553        O559   1.264       .  A
C553        C817   1.484       .  S
C557        C784   1.475       .  S
In560       O562   2.226       .  S
In560       O563   2.230       .  S
In560       O571   2.219       .  S
In560       O565   2.268       .  S
In560       O567   2.275       .  S
In560       O568   2.213       .  S
In560       O569   2.208       .  S
In560       O572   2.280       .  S
C561        O567   1.264       .  A
C561        O569   1.257       .  A
C561        C797   1.478       .  S
O562        C570   1.262       .  A
O563        C570   1.260       .  A
C564        O571   1.257       .  A
C564        O565   1.263       .  A
C564       C1497   1.478       .  S
C566        O568   1.257       .  A
C566        O572   1.263       .  A
C566        C764   1.488       .  S
C570        C827   1.476       .  S
In573       O575   2.271       .  S
In573       O576   2.212       .  S
In573       O584   2.239       .  S
In573       O578   2.253       .  S
In573       O580   2.271       .  S
In573       O581   2.245       .  S
In573       O582   2.198       .  S
In573       O585   2.219       .  S
C574        O580   1.266       .  A
C574        O582   1.257       .  A
C574        C754   1.473       .  S
O575        C583   1.265       .  A
O576        C583   1.257       .  A
C577        O584   1.259       .  A
C577        O578   1.260       .  A
C577       C1534   1.479       .  S
C579        O581   1.261       .  A
C579        O585   1.257       .  A
C579        C747   1.476       .  S
C583        C767   1.488       .  S
In586       O588   2.270       .  S
In586       O589   2.202       .  S
In586       O597   2.207       .  S
In586       O591   2.270       .  S
In586       O593   2.276       .  S
In586       O594   2.231       .  S
In586       O595   2.191       .  S
In586       O598   2.237       .  S
C587        O593   1.267       .  A
C587        O595   1.258       .  A
C587        C757   1.481       .  S
O588        C596   1.266       .  A
O589        C596   1.255       .  A
C590        O597   1.258       .  A
C590        O591   1.265       .  A
C590        C727   1.478       .  S
C592        O594   1.262       .  A
C592        O598   1.260       .  A
C592        C787   1.475       .  S
C596        C737   1.484       .  S
In599       O601   2.202   1_545  S
In599       O602   2.240       .  S
In599       O610   2.219       .  S
In599       O604   2.259   1_545  S
In599       O606   2.269   1_545  S
In599       O607   2.215       .  S
In599       O608   2.209       .  S
In599       O611   2.254       .  S
C600        O606   1.267   1_545  A
C600        O608   1.259       .  A
C600        C714   1.474       .  S
O601        C609   1.262   1_565  A
O602        C609   1.264       .  A
C603        O610   1.260   1_565  A
C603        O604   1.266       .  A
C603        C707   1.483       .  S
C605        O607   1.261       .  A
C605        O611   1.263       .  A
C605        C734   1.484       .  S
C609        C867   1.475       .  S
In612       O614   2.219       .  S
In612       O615   2.260   1_545  S
In612       O623   2.253   1_545  S
In612       O617   2.226       .  S
In612       O619   2.247       .  S
In612       O620   2.268   1_545  S
In612       O621   2.204       .  S
In612       O624   2.225       .  S
C613        O619   1.264       .  A
C613        O621   1.261       .  A
C613        C744   1.477       .  S
O614        C622   1.260       .  A
O615        C622   1.265   1_565  A
C616        O623   1.262   1_545  A
C616        O617   1.262       .  A
C616        C934   1.484       .  S
C618        O620   1.265   1_545  A
C618        O624   1.257       .  A
C618       C1577   1.472   1_545  S
C622        C717   1.478       .  S
In625       O627   2.277       .  S
In625       O628   2.232       .  S
In625       O636   2.236       .  S
In625       O630   2.261       .  S
In625       O632   2.255       .  S
In625       O633   2.261       .  S
In625       O634   2.282       .  S
In625       O637   2.253       .  S
C626        O632   1.255       .  A
C626        O634   1.256       .  A
C626        C670   1.470       .  S
O627        C635   1.263       .  A
O628        C635   1.258       .  A
C629        O636   1.260       .  A
C629        O630   1.264       .  A
C629        C977   1.487       .  S
C631        O633   1.258       .  A
C631        O637   1.258       .  A
C631        C807   1.480       .  S
C635        C644   1.469       .  S
In638       O640   2.255       .  S
In638       O641   2.249       .  S
In638       O649   2.227       .  S
In638       O643   2.269       .  S
In638       O645   2.247       .  S
In638       O646   2.234       .  S
In638       O647   2.275       .  S
In638       O650   2.276       .  S
C639        O645   1.258       .  A
C639        O647   1.260       .  A
C639        C683   1.470       .  S
O640        C648   1.260       .  A
O641        C648   1.259       .  A
C642        O649   1.256       .  A
C642        O643   1.263       .  A
C642       C1107   1.486       .  S
C644        O646   1.258       .  A
C644        O650   1.262       .  A
C648        C704   1.485       .  S
In651       O653   2.258       .  S
In651       O654   2.245       .  S
In651       O662   2.226       .  S
In651       O656   2.271       .  S
In651       O658   2.251       .  S
In651       O659   2.257       .  S
In651       O660   2.252       .  S
In651       O663   2.251       .  S
C652        O658   1.261       .  A
C652        O660   1.260       .  A
C652        C674   1.468       .  S
O653        C661   1.261       .  A
O654        C661   1.260       .  A
C655        O662   1.257       .  A
C655        O656   1.261       .  A
C655        C724   1.486       .  S
C657        O659   1.258       .  A
C657        O663   1.258       .  A
C657       C1077   1.482       .  S
C661        C696   1.468       .  S
In664       O666   2.257       .  S
In664       O667   2.265       .  S
In664       O675   2.252       .  S
In664       O669   2.236       .  S
In664       O671   2.239       .  S
In664       O672   2.283       .  S
In664       O673   2.238       .  S
In664       O676   2.243       .  S
C665        O671   1.260       .  A
C665        O673   1.265       .  A
C665        C877   1.483       .  S
O666        C674   1.257       .  A
O667        C674   1.259       .  A
C668        O675   1.261       .  A
C668        O669   1.259       .  A
C668       C1027   1.482       .  S
C670        O672   1.261       .  A
C670        O676   1.254       .  A
In677       O679   2.256       .  S
In677       O680   2.280       .  S
In677       O688   2.268       .  S
In677       O682   2.228       .  S
In677       O684   2.220       .  S
In677       O685   2.284       .  S
In677       O686   2.267       .  S
In677       O689   2.249       .  S
C678        O684   1.258       .  A
C678        O686   1.266       .  A
C678        C997   1.485       .  S
O679        C687   1.254       .  A
O680        C687   1.258       .  A
C681        O688   1.262       .  A
C681        O682   1.258       .  A
C681        C857   1.486       .  S
C683        O685   1.260       .  A
C683        O689   1.254       .  A
C687        C691   1.471       .  S
In690       O692   2.251       .  S
In690       O693   2.251       .  S
In690       O701   2.236       .  S
In690       O695   2.264       .  S
In690       O697   2.249       .  S
In690       O698   2.244       .  S
In690       O699   2.263       .  S
In690       O702   2.260       .  S
C691        O697   1.260       .  A
C691        O699   1.261       .  A
O692        C700   1.260       .  A
O693        C700   1.257       .  A
C694        O701   1.258       .  A
C694        O695   1.261       .  A
C694        C777   1.483       .  S
C696        O698   1.260       .  A
C696        O702   1.262       .  A
C700        C957   1.484       .  S
C703        C704   1.408       .  A
C703        C708   1.402       .  A
C703        H710   1.084       .  S
C704        C705   1.413       .  A
C705        C706   1.397       .  A
C705       Br712   1.923       .  S
C706        C707   1.406       .  A
C706        H711   1.084       .  S
C707        C708   1.409       .  A
C708       Br709   1.919       .  S
C713        C714   1.403   1_565  A
C713        C718   1.405       .  A
C713        H720   1.083       .  S
C714        C715   1.411       .  A
C715        C716   1.394       .  A
C715       Br722   1.923       .  S
C716        C717   1.402       .  A
C716        H721   1.084       .  S
C717        C718   1.414   1_545  A
C718       Br719   1.919       .  S
C723        C724   1.411       .  A
C723        C728   1.406       .  A
C723        H730   1.083       .  S
C724        C725   1.415       .  A
C725        C726   1.392       .  A
C725       Br732   1.925       .  S
C726        C727   1.402       .  A
C726        H731   1.084       .  S
C727        C728   1.408       .  A
C728       Br729   1.918       .  S
C733        C734   1.403       .  A
C733        C738   1.393       .  A
C733        H740   1.083       .  S
C734        C735   1.414       .  A
C735        C736   1.403       .  A
C735       Br742   1.920       .  S
C736        C737   1.406       .  A
C736        H741   1.083       .  S
C737        C738   1.416       .  A
C738       Br739   1.926       .  S
C743        C744   1.403       .  A
C743        C748   1.390       .  A
C743        H750   1.084       .  S
C744        C745   1.411       .  A
C745        C746   1.399       .  A
C745       Br752   1.920       .  S
C746        C747   1.407       .  A
C746        H751   1.084       .  S
C747        C748   1.412       .  A
C748       Br749   1.924       .  S
C753        C754   1.406       .  A
C753        C758   1.407       .  A
C753        H760   1.083       .  S
C754        C755   1.408       .  A
C755        C756   1.388       .  A
C755       Br762   1.925       .  S
C756        C757   1.404       .  A
C756        H761   1.084       .  S
C757        C758   1.413       .  A
C758       Br759   1.918       .  S
C763        C764   1.404       .  A
C763        C768   1.393       .  A
C763        H770   1.083       .  S
C764        C765   1.414       .  A
C765        C766   1.406       .  A
C765       Br772   1.919       .  S
C766        C767   1.408       .  A
C766        H771   1.083       .  S
C767        C768   1.416       .  A
C768       Br769   1.926       .  S
C773        C774   1.405       .  A
C773        C778   1.395       .  A
C773        H780   1.083       .  S
C774        C775   1.411       .  A
C775        C776   1.404       .  A
C775       Br782   1.919       .  S
C776        C777   1.407       .  A
C776        H781   1.083       .  S
C777        C778   1.413       .  A
C778       Br779   1.923       .  S
C783        C784   1.404       .  A
C783        C788   1.398       .  A
C783        H790   1.083       .  S
C784        C785   1.412       .  A
C785        C786   1.395       .  A
C785       Br792   1.922       .  S
C786        C787   1.403       .  A
C786        H791   1.083       .  S
C787        C788   1.412       .  A
C788       Br789   1.921       .  S
C793        C794   1.405       .  A
C793        C798   1.406       .  A
C793        H800   1.083       .  S
C794        C795   1.408       .  A
C795        C796   1.391       .  A
C795       Br802   1.924       .  S
C796        C797   1.404       .  A
C796        H801   1.084       .  S
C797        C798   1.412       .  A
C798       Br799   1.917       .  S
C803        C804   1.405       .  A
C803        C808   1.402       .  A
C803        H810   1.083       .  S
C804        C805   1.412       .  A
C805        C806   1.398       .  A
C805       Br812   1.921   1_455  S
C806        C807   1.404       .  A
C806        H811   1.083       .  S
C807        C808   1.410       .  A
C808       Br809   1.919       .  S
C813        C814   1.407       .  A
C813        C818   1.405       .  A
C813        H820   1.084       .  S
C814        C815   1.414       .  A
C815        C816   1.391       .  A
C815       Br822   1.925       .  S
C816        C817   1.404       .  A
C816        H821   1.084       .  S
C817        C818   1.413       .  A
C818       Br819   1.919       .  S
C823        C824   1.404       .  A
C823        C828   1.397       .  A
C823        H830   1.083       .  S
C824        C825   1.414       .  A
C825        C826   1.392       .  A
C825       Br832   1.924       .  S
C826        C827   1.403       .  A
C826        H831   1.083       .  S
C827        C828   1.414       .  A
C828       Br829   1.922       .  S
C833        C834   1.403       .  A
C833        C838   1.389       .  A
C833        H840   1.084       .  S
C834        C835   1.414       .  A
C835        C836   1.407       .  A
C835       Br842   1.918   1_655  S
C836        C837   1.408       .  A
C836        H841   1.084   1_655  S
C837        C838   1.416       .  A
C838       Br839   1.928       .  S
C843        C844   1.402       .  A
C843        C848   1.391       .  A
C843        H850   1.083       .  S
C844        C845   1.414       .  A
C845        C846   1.405       .  A
C845       Br852   1.919   1_655  S
C846        C847   1.407       .  A
C846        H851   1.083   1_655  S
C847        C848   1.416       .  A
C848       Br849   1.926       .  S
C853        C854   1.406       .  A
C853        C858   1.402       .  A
C853        H860   1.084       .  S
C854        C855   1.407       .  A
C855        C856   1.397       .  A
C855       Br862   1.920       .  S
C856        C857   1.408       .  A
C856        H861   1.083       .  S
C857        C858   1.414       .  A
C858       Br859   1.921       .  S
C863        C864   1.405       .  A
C863        C868   1.397       .  A
C863        H870   1.084       .  S
C864        C865   1.412   1_545  A
C865        C866   1.390       .  A
C865       Br872   1.924       .  S
C866        C867   1.404   1_565  A
C866        H871   1.084       .  S
C867        C868   1.412       .  A
C868       Br869   1.921       .  S
C873        C874   1.399       .  A
C873        C878   1.405       .  A
C873        H880   1.083       .  S
C874        C875   1.407       .  A
C875        C876   1.392       .  A
C875       Br882   1.913       .  S
C876        C877   1.402       .  A
C876        H881   1.084       .  S
C877        C878   1.419       .  A
C878       Br879   1.919       .  S
C883        C884   1.402       .  A
C883        C888   1.390       .  A
C883        H890   1.080   1_655  S
C884        C885   1.412       .  A
C885        C886   1.399       .  A
C885       Br892   1.921       .  S
C886        C887   1.404       .  A
C886        H891   1.083       .  S
C887        C888   1.411       .  A
C888       Br889   1.925   1_655  S
C893        C894   1.403       .  A
C893        C898   1.391       .  A
C893        H900   1.084       .  S
C894        C895   1.411       .  A
C895        C896   1.405       .  A
C895       Br902   1.917   1_655  S
C896        C897   1.405       .  A
C896        H901   1.083   1_655  S
C897        C898   1.410       .  A
C898       Br899   1.924       .  S
C903        C904   1.403       .  A
C903        C908   1.394       .  A
C903        H910   1.083       .  S
C904        C905   1.414       .  A
C905        C906   1.407       .  A
C905       Br912   1.919       .  S
C906        C907   1.407       .  A
C906        H911   1.083       .  S
C907        C908   1.417       .  A
C908       Br909   1.926       .  S
C913        C914   1.403       .  A
C913        C918   1.399       .  A
C913        H920   1.084       .  S
C914        C915   1.408       .  A
C915        C916   1.393       .  A
C915       Br922   1.921       .  S
C916        C917   1.401       .  A
C916        H921   1.084       .  S
C917        C918   1.409       .  A
C918       Br919   1.920       .  S
C923        C924   1.406       .  A
C923        C928   1.406       .  A
C923        H930   1.083       .  S
C924        C925   1.415   1_565  A
C925        C926   1.392       .  A
C925       Br932   1.926       .  S
C926        C927   1.401   1_545  A
C926        H931   1.084       .  S
C927        C928   1.412       .  A
C928       Br929   1.918       .  S
C933        C934   1.403       .  A
C933        C938   1.395       .  A
C933        H940   1.083       .  S
C934        C935   1.415   1_545  A
C935        C936   1.404       .  A
C935       Br942   1.920       .  S
C936        C937   1.404   1_565  A
C936        H941   1.083       .  S
C937        C938   1.413       .  A
C938       Br939   1.924       .  S
C943        C944   1.403       .  A
C943        C948   1.394       .  A
C943        H950   1.083       .  S
C944        C945   1.415       .  A
C945        C946   1.406       .  A
C945       Br952   1.920       .  S
C946        C947   1.408       .  A
C946        H951   1.083       .  S
C947        C948   1.417       .  A
C948       Br949   1.926       .  S
C953        C954   1.401       .  A
C953        C958   1.404       .  A
C953        H960   1.083       .  S
C954        C955   1.412       .  A
C955        C956   1.395       .  A
C955       Br962   1.922       .  S
C956        C957   1.402       .  A
C956        H961   1.083       .  S
C957        C958   1.417       .  A
C958       Br959   1.920       .  S
C963        C964   1.403       .  A
C963        C968   1.390       .  A
C963        H970   1.084       .  S
C964        C965   1.416       .  A
C965        C966   1.408       .  A
C965       Br972   1.918       .  S
C966        C967   1.405       .  A
C966        H971   1.083       .  S
C967        C968   1.413       .  A
C968       Br969   1.927       .  S
C973        C974   1.405       .  A
C973        C978   1.398       .  A
C973        H980   1.083       .  S
C974        C975   1.415       .  A
C975        C976   1.403       .  A
C975       Br982   1.920       .  S
C976        C977   1.405       .  A
C976        H981   1.083       .  S
C977        C978   1.415       .  A
C978       Br979   1.923       .  S
C983        C984   1.405       .  A
C983        C988   1.394       .  A
C983        H990   1.084       .  S
C984        C985   1.414       .  A
C985        C986   1.404       .  A
C985       Br992   1.919       .  S
C986        C987   1.407       .  A
C986        H991   1.084       .  S
C987        C988   1.413       .  A
C988       Br989   1.924       .  S
C993        C994   1.405       .  A
C993        C998   1.396       .  A
C993       H1000   1.083       .  S
C994        C995   1.416       .  A
C995        C996   1.404       .  A
C995      Br1002   1.920       .  S
C996        C997   1.406       .  A
C996       H1001   1.084       .  S
C997        C998   1.414       .  A
C998       Br999   1.924       .  S
C1003      C1004   1.406       .  A
C1003      C1008   1.398       .  A
C1003      H1010   1.084       .  S
C1004      C1005   1.413       .  A
C1005      C1006   1.391       .  A
C1005     Br1012   1.924       .  S
C1006      C1007   1.403       .  A
C1006      H1011   1.084       .  S
C1007      C1008   1.411       .  A
C1008     Br1009   1.921       .  S
C1013      C1014   1.403       .  A
C1013      C1018   1.404       .  A
C1013      H1020   1.083   1_565  S
C1014      C1015   1.410       .  A
C1015      C1016   1.394       .  A
C1015     Br1022   1.923       .  S
C1016      C1017   1.401       .  A
C1016      H1021   1.084       .  S
C1017      C1018   1.413       .  A
C1018     Br1019   1.918   1_565  S
C1023      C1024   1.404       .  A
C1023      C1028   1.399       .  A
C1023      H1030   1.084       .  S
C1024      C1025   1.404       .  A
C1025      C1026   1.399       .  A
C1025     Br1032   1.918   1_455  S
C1026      C1027   1.409       .  A
C1026      H1031   1.083       .  S
C1027      C1028   1.414       .  A
C1028     Br1029   1.923       .  S
C1033      C1034   1.405       .  A
C1033      C1038   1.396       .  A
C1033      H1040   1.083       .  S
C1034      C1035   1.414       .  A
C1035      C1036   1.405       .  A
C1035     Br1042   1.919       .  S
C1036      C1037   1.407       .  A
C1036      H1041   1.083       .  S
C1037      C1038   1.417       .  A
C1038     Br1039   1.925       .  S
C1043      C1044   1.405       .  A
C1043      C1048   1.396       .  A
C1043      H1050   1.083       .  S
C1044      C1045   1.414       .  A
C1045      C1046   1.396       .  A
C1045     Br1052   1.923       .  S
C1046      C1047   1.404       .  A
C1046      H1051   1.083       .  S
C1047      C1048   1.411       .  A
C1048     Br1049   1.922       .  S
C1053      C1054   1.399       .  A
C1053      C1058   1.393       .  A
C1053      H1060   1.084       .  S
C1054      C1055   1.410   1_455  A
C1055      C1056   1.404       .  A
C1055     Br1062   1.918       .  S
C1056      C1057   1.404   1_655  A
C1056      H1061   1.083       .  S
C1057      C1058   1.414       .  A
C1058     Br1059   1.924       .  S
C1063      C1064   1.406       .  A
C1063      C1068   1.405       .  A
C1063      H1070   1.083       .  S
C1064      C1065   1.413       .  A
C1065      C1066   1.396       .  A
C1065     Br1072   1.923       .  S
C1066      C1067   1.403       .  A
C1066      H1071   1.083       .  S
C1067      C1068   1.414       .  A
C1068     Br1069   1.920       .  S
C1073      C1074   1.401       .  A
C1073      C1078   1.397       .  A
C1073      H1080   1.085       .  S
C1074      C1075   1.402       .  A
C1075      C1076   1.403       .  A
C1075     Br1082   1.916       .  S
C1076      C1077   1.410       .  A
C1076      H1081   1.083       .  S
C1077      C1078   1.413       .  A
C1078     Br1079   1.922       .  S
C1083      C1084   1.403       .  A
C1083      C1088   1.390       .  A
C1083      H1090   1.084       .  S
C1084      C1085   1.413       .  A
C1085      C1086   1.398       .  A
C1085     Br1092   1.921       .  S
C1086      C1087   1.405       .  A
C1086      H1091   1.084       .  S
C1087      C1088   1.413       .  A
C1088     Br1089   1.925       .  S
C1093      C1094   1.406       .  A
C1093      C1098   1.405       .  A
C1093      H1100   1.083       .  S
C1094      C1095   1.407       .  A
C1095      C1096   1.396       .  A
C1095     Br1102   1.921       .  S
C1096      C1097   1.403       .  A
C1096      H1101   1.084       .  S
C1097      C1098   1.408       .  A
C1098     Br1099   1.917       .  S
C1103      C1104   1.405       .  A
C1103      C1108   1.394       .  A
C1103      H1110   1.083       .  S
C1104      C1105   1.413       .  A
C1105      C1106   1.404       .  A
C1105     Br1112   1.920       .  S
C1106      C1107   1.408       .  A
C1106      H1111   1.083       .  S
C1107      C1108   1.415       .  A
C1108     Br1109   1.924       .  S
C1113      C1114   1.405       .  A
C1113      C1118   1.397       .  A
C1113      H1120   1.083       .  S
C1114      C1115   1.414       .  A
C1115      C1116   1.395       .  A
C1115     Br1122   1.923       .  S
C1116      C1117   1.404       .  A
C1116      H1121   1.083       .  S
C1117      C1118   1.413       .  A
C1118     Br1119   1.922       .  S
C1123      C1124   1.405       .  A
C1123      C1128   1.393       .  A
C1123      H1130   1.084       .  S
C1124      C1125   1.413       .  A
C1125      C1126   1.401       .  A
C1125     Br1132   1.920       .  S
C1126      C1127   1.406       .  A
C1126      H1131   1.084       .  S
C1127      C1128   1.412       .  A
C1128     Br1129   1.924       .  S
C1133      C1134   1.404       .  A
C1133      C1138   1.397       .  A
C1133      H1140   1.083       .  S
C1134      C1135   1.415       .  A
C1135      C1136   1.392       .  A
C1135     Br1142   1.925       .  S
C1136      C1137   1.402       .  A
C1136      H1141   1.083       .  S
C1137      C1138   1.413       .  A
C1138     Br1139   1.921       .  S
C1143      C1144   1.408       .  A
C1143      C1148   1.407       .  A
C1143      H1150   1.084       .  S
C1144      C1145   1.411   1_655  A
C1145      C1146   1.390       .  A
C1145     Br1152   1.925       .  S
C1146      C1147   1.403   1_455  A
C1146      H1151   1.084       .  S
C1147      C1148   1.412       .  A
C1148     Br1149   1.918       .  S
C1153      C1154   1.405       .  A
C1153      C1158   1.400       .  A
C1153      H1160   1.084       .  S
C1154      C1155   1.409       .  A
C1155      C1156   1.390       .  A
C1155     Br1162   1.922       .  S
C1156      C1157   1.402       .  A
C1156      H1161   1.085       .  S
C1157      C1158   1.409       .  A
C1158     Br1159   1.919       .  S
C1163      C1164   1.406       .  A
C1163      C1168   1.406       .  A
C1163      H1170   1.084   1_565  S
C1164      C1165   1.408       .  A
C1165      C1166   1.389       .  A
C1165     Br1172   1.924       .  S
C1166      C1167   1.405       .  A
C1166      H1171   1.084       .  S
C1167      C1168   1.413       .  A
C1168     Br1169   1.918   1_565  S
C1173      C1174   1.404       .  A
C1173      C1178   1.395       .  A
C1173      H1180   1.083       .  S
C1174      C1175   1.414       .  A
C1175      C1176   1.407       .  A
C1175     Br1182   1.919       .  S
C1176      C1177   1.408       .  A
C1176      H1181   1.083       .  S
C1177      C1178   1.416       .  A
C1178     Br1179   1.924       .  S
C1183      C1184   1.401       .  A
C1183      C1188   1.393       .  A
C1183      H1190   1.084       .  S
C1184      C1185   1.419       .  A
C1185      C1186   1.408   1_545  A
C1185     Br1192   1.920   1_545  S
C1186      C1187   1.402   1_565  A
C1186      H1191   1.084       .  S
C1187      C1188   1.411       .  A
C1188     Br1189   1.922       .  S
C1193      C1194   1.405       .  A
C1193      C1198   1.402       .  A
C1193      H1200   1.083       .  S
C1194      C1195   1.416       .  A
C1195      C1196   1.400       .  A
C1195     Br1202   1.920       .  S
C1196      C1197   1.402       .  A
C1196      H1201   1.083       .  S
C1197      C1198   1.412       .  A
C1198     Br1199   1.921       .  S
C1203      C1204   1.404       .  A
C1203      C1208   1.397       .  A
C1203      H1210   1.084       .  S
C1204      C1205   1.406       .  A
C1205      C1206   1.404       .  A
C1205     Br1212   1.917   1_655  S
C1206      C1207   1.408       .  A
C1206      H1211   1.083       .  S
C1207      C1208   1.411       .  A
C1208     Br1209   1.923       .  S
C1213      C1214   1.403       .  A
C1213      C1218   1.397       .  A
C1213      H1220   1.083       .  S
C1214      C1215   1.419       .  A
C1215      C1216   1.406       .  A
C1215     Br1222   1.920       .  S
C1216      C1217   1.400       .  A
C1216      H1221   1.083       .  S
C1217      C1218   1.412       .  A
C1218     Br1219   1.920       .  S
C1223      C1224   1.404       .  A
C1223      C1228   1.401       .  A
C1223      H1230   1.083       .  S
C1224      C1225   1.405       .  A
C1225      C1226   1.399       .  A
C1225     Br1232   1.919   1_545  S
C1226      C1227   1.409       .  A
C1226      H1231   1.083       .  S
C1227      C1228   1.414       .  A
C1228     Br1229   1.922       .  S
C1233      C1234   1.403       .  A
C1233      C1238   1.399       .  A
C1233      H1240   1.084       .  S
C1234      C1235   1.414       .  A
C1235      C1236   1.405       .  A
C1235     Br1242   1.919       .  S
C1236      C1237   1.406       .  A
C1236      H1241   1.083       .  S
C1237      C1238   1.418       .  A
C1238     Br1239   1.925       .  S
C1243      C1244   1.406       .  A
C1243      C1248   1.400       .  A
C1243      H1250   1.084   1_655  S
C1244      C1245   1.414       .  A
C1245      C1246   1.404       .  A
C1245     Br1252   1.920       .  S
C1246      C1247   1.407       .  A
C1246      H1251   1.083       .  S
C1247      C1248   1.415       .  A
C1248     Br1249   1.921       .  S
C1253      C1254   1.400       .  A
C1253      C1258   1.396       .  A
C1253      H1260   1.084       .  S
C1254      C1255   1.412       .  A
C1255      C1256   1.405       .  A
C1255     Br1262   1.919   1_455  S
C1256      C1257   1.402       .  A
C1256      H1261   1.083   1_455  S
C1257      C1258   1.410       .  A
C1258     Br1259   1.921       .  S
C1263      C1264   1.406       .  A
C1263      C1268   1.403       .  A
C1263      H1270   1.083       .  S
C1264      C1265   1.411       .  A
C1265      C1266   1.399       .  A
C1265     Br1272   1.921       .  S
C1266      C1267   1.407       .  A
C1266      H1271   1.083       .  S
C1267      C1268   1.415       .  A
C1268     Br1269   1.920       .  S
C1273      C1274   1.407       .  A
C1273      C1278   1.405       .  A
C1273      H1280   1.084       .  S
C1274      C1275   1.414       .  A
C1275      C1276   1.396       .  A
C1275     Br1282   1.923       .  S
C1276      C1277   1.405       .  A
C1276      H1281   1.084       .  S
C1277      C1278   1.415       .  A
C1278     Br1279   1.920       .  S
C1283      C1284   1.404       .  A
C1283      C1288   1.398       .  A
C1283      H1290   1.083       .  S
C1284      C1285   1.413       .  A
C1285      C1286   1.391       .  A
C1285     Br1292   1.924       .  S
C1286      C1287   1.401       .  A
C1286      H1291   1.084       .  S
C1287      C1288   1.412       .  A
C1288     Br1289   1.921       .  S
C1293      C1294   1.408       .  A
C1293      C1298   1.408       .  A
C1293      H1300   1.083       .  S
C1294      C1295   1.414       .  A
C1295      C1296   1.389       .  A
C1295     Br1302   1.926       .  S
C1296      C1297   1.403       .  A
C1296      H1301   1.083       .  S
C1297      C1298   1.413       .  A
C1298     Br1299   1.918       .  S
C1303      C1304   1.408       .  A
C1303      C1308   1.406       .  A
C1303      H1310   1.083       .  S
C1304      C1305   1.416       .  A
C1305      C1306   1.394       .  A
C1305     Br1312   1.925       .  S
C1306      C1307   1.404       .  A
C1306      H1311   1.084       .  S
C1307      C1308   1.414       .  A
C1308     Br1309   1.919       .  S
C1313      C1314   1.404       .  A
C1313      C1318   1.401       .  A
C1313      H1320   1.083       .  S
C1314      C1315   1.417       .  A
C1315      C1316   1.401   1_545  A
C1315     Br1322   1.922   1_545  S
C1316      C1317   1.401       .  A
C1316      H1321   1.083       .  S
C1317      C1318   1.411   1_565  A
C1318     Br1319   1.921       .  S
C1323      C1324   1.405       .  A
C1323      C1328   1.400       .  A
C1323      H1330   1.084       .  S
C1324      C1325   1.407       .  A
C1325      C1326   1.401       .  A
C1325     Br1332   1.920       .  S
C1326      C1327   1.410       .  A
C1326      H1331   1.083       .  S
C1327      C1328   1.414       .  A
C1328     Br1329   1.920       .  S
C1333      C1334   1.403       .  A
C1333      C1338   1.397       .  A
C1333      H1340   1.084       .  S
C1334      C1335   1.411       .  A
C1335      C1336   1.396       .  A
C1335     Br1342   1.922       .  S
C1336      C1337   1.402       .  A
C1336      H1341   1.084       .  S
C1337      C1338   1.410       .  A
C1338     Br1339   1.921       .  S
C1343      C1344   1.404       .  A
C1343      C1348   1.404       .  A
C1343      H1350   1.083       .  S
C1344      C1345   1.404       .  A
C1345      C1346   1.394       .  A
C1345     Br1352   1.921       .  S
C1346      C1347   1.406       .  A
C1346      H1351   1.084       .  S
C1347      C1348   1.411       .  A
C1348     Br1349   1.918       .  S
C1353      C1354   1.407       .  A
C1353      C1358   1.404       .  A
C1353      H1360   1.083       .  S
C1354      C1355   1.416       .  A
C1355      C1356   1.397       .  A
C1355     Br1362   1.924       .  S
C1356      C1357   1.404       .  A
C1356      H1361   1.083       .  S
C1357      C1358   1.415       .  A
C1358     Br1359   1.920       .  S
C1363      C1364   1.405       .  A
C1363      C1368   1.397       .  A
C1363      H1370   1.083       .  S
C1364      C1365   1.414       .  A
C1365      C1366   1.390       .  A
C1365     Br1372   1.925       .  S
C1366      C1367   1.402       .  A
C1366      H1371   1.083       .  S
C1367      C1368   1.412       .  A
C1368     Br1369   1.922       .  S
C1373      C1374   1.401       .  A
C1373      C1378   1.393       .  A
C1373      H1380   1.084       .  S
C1374      C1375   1.412       .  A
C1375      C1376   1.405       .  A
C1375     Br1382   1.919       .  S
C1376      C1377   1.405       .  A
C1376      H1381   1.083       .  S
C1377      C1378   1.414       .  A
C1378     Br1379   1.924       .  S
C1383      C1384   1.407       .  A
C1383      C1388   1.403       .  A
C1383      H1390   1.084       .  S
C1384      C1385   1.414       .  A
C1385      C1386   1.393       .  A
C1385     Br1392   1.924       .  S
C1386      C1387   1.404       .  A
C1386      H1391   1.084       .  S
C1387      C1388   1.413       .  A
C1388     Br1389   1.920   1_565  S
C1393      C1394   1.408       .  A
C1393      C1398   1.404       .  A
C1393      H1400   1.083       .  S
C1394      C1395   1.416   1_545  A
C1395      C1396   1.394   1_565  A
C1395     Br1402   1.925       .  S
C1396      C1397   1.404       .  A
C1396      H1401   1.083       .  S
C1397      C1398   1.413       .  A
C1398     Br1399   1.920       .  S
C1403      C1404   1.403       .  A
C1403      C1408   1.398       .  A
C1403      H1410   1.083       .  S
C1404      C1405   1.413       .  A
C1405      C1406   1.390       .  A
C1405     Br1412   1.925       .  S
C1406      C1407   1.401       .  A
C1406      H1411   1.084       .  S
C1407      C1408   1.412       .  A
C1408     Br1409   1.921       .  S
C1413      C1414   1.403       .  A
C1413      C1418   1.387       .  A
C1413      H1420   1.083       .  S
C1414      C1415   1.414       .  A
C1415      C1416   1.408       .  A
C1415     Br1422   1.918   1_565  S
C1416      C1417   1.407       .  A
C1416      H1421   1.083       .  S
C1417      C1418   1.413       .  A
C1418     Br1419   1.927       .  S
C1423      C1424   1.402       .  A
C1423      C1428   1.404       .  A
C1423      H1430   1.083       .  S
C1424      C1425   1.412       .  A
C1425      C1426   1.395       .  A
C1425     Br1432   1.920       .  S
C1426      C1427   1.399       .  A
C1426      H1431   1.084       .  S
C1427      C1428   1.412       .  A
C1428     Br1429   1.918       .  S
C1433      C1434   1.406       .  A
C1433      C1438   1.397       .  A
C1433      H1440   1.084       .  S
C1434      C1435   1.413       .  A
C1435      C1436   1.391       .  A
C1435     Br1442   1.924   1_455  S
C1436      C1437   1.403       .  A
C1436      H1441   1.084   1_455  S
C1437      C1438   1.410       .  A
C1438     Br1439   1.921       .  S
C1443      C1444   1.408       .  A
C1443      C1448   1.408       .  A
C1443      H1450   1.083       .  S
C1444      C1445   1.413       .  A
C1445      C1446   1.391       .  A
C1445     Br1452   1.925       .  S
C1446      C1447   1.403       .  A
C1446      H1451   1.084       .  S
C1447      C1448   1.412       .  A
C1448     Br1449   1.917       .  S
C1453      C1454   1.405       .  A
C1453      C1458   1.396       .  A
C1453      H1460   1.083       .  S
C1454      C1455   1.412       .  A
C1455      C1456   1.396       .  A
C1455     Br1462   1.922       .  S
C1456      C1457   1.405       .  A
C1456      H1461   1.083       .  S
C1457      C1458   1.413       .  A
C1458     Br1459   1.922       .  S
C1463      C1464   1.404   1_655  A
C1463      C1468   1.398       .  A
C1463      H1470   1.084       .  S
C1464      C1465   1.407       .  A
C1465      C1466   1.401       .  A
C1465     Br1472   1.918       .  S
C1466      C1467   1.403       .  A
C1466      H1471   1.084       .  S
C1467      C1468   1.405   1_455  A
C1468     Br1469   1.920       .  S
C1473      C1474   1.400       .  A
C1473      C1478   1.391       .  A
C1473      H1480   1.084       .  S
C1474      C1475   1.410       .  A
C1475      C1476   1.405       .  A
C1475     Br1482   1.918   1_455  S
C1476      C1477   1.404       .  A
C1476      H1481   1.083       .  S
C1477      C1478   1.405       .  A
C1478     Br1479   1.921       .  S
C1483      C1484   1.402       .  A
C1483      C1488   1.396       .  A
C1483      H1490   1.083       .  S
C1484      C1485   1.415       .  A
C1485      C1486   1.403       .  A
C1485     Br1492   1.921       .  S
C1486      C1487   1.406       .  A
C1486      H1491   1.083       .  S
C1487      C1488   1.417       .  A
C1488     Br1489   1.923       .  S
C1493      C1494   1.404       .  A
C1493      C1498   1.404       .  A
C1493      H1500   1.083       .  S
C1494      C1495   1.404       .  A
C1495      C1496   1.393       .  A
C1495     Br1502   1.921       .  S
C1496      C1497   1.406       .  A
C1496      H1501   1.083       .  S
C1497      C1498   1.411       .  A
C1498     Br1499   1.918       .  S
C1503      C1504   1.406       .  A
C1503      C1508   1.399       .  A
C1503      H1510   1.084       .  S
C1504      C1505   1.413       .  A
C1505      C1506   1.400       .  A
C1505     Br1512   1.921       .  S
C1506      C1507   1.404       .  A
C1506      H1511   1.083       .  S
C1507      C1508   1.411       .  A
C1508     Br1509   1.922       .  S
C1513      C1514   1.411       .  A
C1513      C1518   1.406       .  A
C1513      H1520   1.083       .  S
C1514      C1515   1.414   1_565  A
C1515      C1516   1.395       .  A
C1515     Br1522   1.923       .  S
C1516      C1517   1.404   1_545  A
C1516      H1521   1.084       .  S
C1517      C1518   1.409       .  A
C1518     Br1519   1.918       .  S
C1523      C1524   1.409       .  A
C1523      C1528   1.403       .  A
C1523      H1530   1.083       .  S
C1524      C1525   1.412       .  A
C1525      C1526   1.395       .  A
C1525     Br1532   1.923       .  S
C1526      C1527   1.403       .  A
C1526      H1531   1.084       .  S
C1527      C1528   1.404       .  A
C1528     Br1529   1.916       .  S
C1533      C1534   1.403       .  A
C1533      C1538   1.398       .  A
C1533      H1540   1.084       .  S
C1534      C1535   1.413       .  A
C1535      C1536   1.400       .  A
C1535     Br1542   1.921       .  S
C1536      C1537   1.403       .  A
C1536      H1541   1.084       .  S
C1537      C1538   1.413       .  A
C1538     Br1539   1.922       .  S
C1543      C1544   1.411   1_655  A
C1543      C1548   1.403       .  A
C1543      H1550   1.083       .  S
C1544      C1545   1.416       .  A
C1545      C1546   1.397       .  A
C1545     Br1552   1.923       .  S
C1546      C1547   1.403       .  A
C1546      H1551   1.085       .  S
C1547      C1548   1.405   1_455  A
C1548     Br1549   1.917       .  S
C1553      C1554   1.412   1_455  A
C1553      C1558   1.406       .  A
C1553      H1560   1.083       .  S
C1554      C1555   1.415       .  A
C1555      C1556   1.392       .  A
C1555     Br1562   1.924       .  S
C1556      C1557   1.399       .  A
C1556      H1561   1.084       .  S
C1557      C1558   1.403   1_655  A
C1558     Br1559   1.916       .  S
C1563      C1564   1.403       .  A
C1563      C1568   1.393       .  A
C1563      H1570   1.084       .  S
C1564      C1565   1.414       .  A
C1565      C1566   1.403       .  A
C1565     Br1572   1.920   1_565  S
C1566      C1567   1.406       .  A
C1566      H1571   1.083   1_565  S
C1567      C1568   1.416       .  A
C1568     Br1569   1.925       .  S
C1573      C1574   1.400   1_545  A
C1573      C1578   1.395       .  A
C1573      H1580   1.083       .  S
C1574      C1575   1.417       .  A
C1575      C1576   1.404       .  A
C1575     Br1582   1.920       .  S
C1576      C1577   1.400       .  A
C1576      H1581   1.083       .  S
C1577      C1578   1.409   1_565  A
C1578     Br1579   1.915       .  S
C1583      C1584   1.404   1_455  A
C1583      C1588   1.396       .  A
C1583      H1590   1.084       .  S
C1584      C1585   1.413       .  A
C1585      C1586   1.402       .  A
C1585     Br1592   1.920       .  S
C1586      C1587   1.407   1_655  A
C1586      H1591   1.083       .  S
C1587      C1588   1.416       .  A
C1588     Br1589   1.924       .  S
C1593      C1594   1.410   1_455  A
C1593      C1598   1.401       .  A
C1593      H1600   1.083       .  S
C1594      C1595   1.413       .  A
C1595      C1596   1.395       .  A
C1595     Br1602   1.923       .  S
C1596      C1597   1.405       .  A
C1596      H1601   1.085       .  S
C1597      C1598   1.406   1_655  A
C1598     Br1599   1.918       .  S
