geometry optimzed in LAMMPS
_audit_creation_date              2020-11-30 
_audit_creation_method            'lammps2cif' 
_symmetry_space_group_name_H-M    'P1' 
_symmetry_Int_Tables_number       1 
_symmetry_cell_setting            triclinic 
loop_ 
_symmetry_equiv_pos_as_xyz 
  x,y,z 
_cell_length_a                    52.68974926 
_cell_length_b                    52.83956793545854 
_cell_length_c                    52.7571863379574 
_cell_angle_alpha                 89.62693793492548 
_cell_angle_beta                  90.13673085459864 
_cell_angle_gamma                 89.89834481114923 
loop_ 
_atom_site_label 
_atom_site_type_symbol 
_atom_site_fract_x 
_atom_site_fract_y 
_atom_site_fract_z 
_atom_site_charge 
Zr1        Zr  0.75371301  0.57113143  0.94906850     2.17500
O2          O  0.73992800  0.57743773  0.99285525    -0.51900
O3          O  0.70947316  0.58192433  0.94349444    -0.75100
O4          O  0.76509362  0.61323372  0.96170499    -0.81900
O5          O  0.76017723  0.50203592  0.96324751    -0.83600
O6          O  0.77258112  0.63530829  0.92626330    -0.79300
O7          O  0.75238951  0.53985601  0.98221827    -0.90900
O8          O  0.70212509  0.58609231  0.90130798    -0.76900
O9          O  0.75667395  0.59662446  0.91199683    -0.86400
O10         O  0.73474517  0.54569826  0.91667323    -0.86100
O11         O  0.79831634  0.58028404  0.94467103    -0.72800
O12         O  0.77866745  0.53434053  0.94459269    -0.84900
Zr13       Zr  0.80907256  0.54110819  0.87188572     2.26400
Zr14       Zr  0.80100071  0.60464203  0.90600736     2.06300
Zr15       Zr  0.76038364  0.50794138  0.91372161     2.10000
Zr16       Zr  0.73948247  0.57186812  0.87938808     1.78800
O17         O  0.77425290  0.46401739  0.91220413    -0.93700
O18         O  0.73368900  0.61486595  0.86325708    -0.41600
O19         O  0.76494917  0.53509151  0.87819434    -0.78200
O20         O  0.78413494  0.57958547  0.87187908    -0.96900
O21         O  0.82623832  0.56683494  0.90424282    -0.90200
O22         O  0.80516938  0.51493623  0.90876523    -0.93000
C23         C  0.69538401  0.58754160  0.92449098     1.00700
C24         C  0.75665982  0.51609925  0.98364819     1.13700
C25         C  0.76257822  0.63321578  0.94833006     1.04400
O26         O  0.79997106  0.64241291  0.87928867    -0.95200
O27         O  0.83526647  0.60957833  0.87520793    -0.90900
O28         O  0.83802439  0.57176144  0.85510322    -0.84100
C29         C  0.84505780  0.59448491  0.85889003     1.11100
O30         O  0.82658408  0.54763161  0.98701990    -0.97200
Zr31       Zr  0.82252673  0.54183019  0.94137502     1.88900
O32         O  0.84788637  0.51761495  0.88084700    -0.73800
O33         O  0.83130270  0.62498688  0.93429113    -0.53100
O34         O  0.85927688  0.56931607  0.94660907    -0.97700
O35         O  0.82729892  0.50440095  0.96819587    -0.55000
O36         O  0.85682585  0.51897067  0.92292584    -0.74300
C37         C  0.86169116  0.51238534  0.90028245     0.98000
O38         O  0.81811404  0.53516211  0.82689246    -0.63100
O39         O  0.71984557  0.48652087  0.91907685    -0.57900
O40         O  0.79110233  0.50923319  0.84438606    -0.94600
O41         O  0.75447877  0.50004084  0.86492254    -0.93000
O42         O  0.70859923  0.54295742  0.86116464    -0.93400
O43         O  0.72999780  0.57627728  0.83440915    -0.92200
C44         C  0.76825283  0.50116133  0.84398562     1.16900
H45         H  0.71732642  0.54120309  0.92006080     0.32800
H46         H  0.78629737  0.58842010  0.85594688     0.43700
H47         H  0.81364018  0.49878538  0.90746844     0.37200
H48         H  0.80469337  0.58963155  0.95900124     0.33700
H49         H  0.73035678  0.62528404  0.87841365     0.25500
H50         H  0.83673660  0.64031496  0.92490290     0.31400
H51         H  0.86999141  0.56650496  0.93148282     0.37300
H52         H  0.71062719  0.52702186  0.87092983     0.31800
H53         H  0.71094833  0.49619345  0.93239558     0.30600
H54         H  0.78397562  0.46149284  0.92809578     0.32300
H55         H  0.84571675  0.50305216  0.97172535     0.31300
H56         H  0.74620926  0.58154010  0.82654631     0.35300
H57         H  0.81389379  0.55142766  0.81842531     0.28000
H58         H  0.75111202  0.59047282  0.00035024     0.32300
H59         H  0.84501043  0.54940275  0.99029000     0.35100
H60         H  0.71033716  0.49033866  0.90330781     0.27700
H61         H  0.83679808  0.53354202  0.82553953     0.40600
H62         H  0.78198550  0.64783663  0.87891939     0.30600
H63         H  0.75072955  0.62024487  0.85751841     0.38300
H64         H  0.82351132  0.48998011  0.95691757     0.30100
H65         H  0.82100172  0.63160289  0.94846807     0.30200
H66         H  0.72298719  0.58545434  0.99181896     0.30400
Zr67       Zr  0.80015217  0.45930414  0.62269042     2.17500
O68         O  0.77966624  0.43728863  0.58765616    -0.51900
O69         O  0.79823719  0.41425145  0.63238440    -0.75100
O70         O  0.83722086  0.44500160  0.59977811    -0.81900
O71         O  0.74517281  0.50420108  0.61525711    -0.83600
O72         O  0.86767412  0.44481660  0.62988566    -0.79300
O73         O  0.77088115  0.47821180  0.59229081    -0.90900
O74         O  0.80522657  0.40806565  0.67425644    -0.76900
O75         O  0.82810769  0.44887930  0.65633025    -0.86400
O76         O  0.77346569  0.45778733  0.65949879    -0.86100
O77         O  0.83193669  0.49234328  0.62154724    -0.72800
O78         O  0.78388393  0.50042771  0.62957212    -0.84900
Zr79       Zr  0.81648123  0.52269243  0.69892116     2.26400
Zr80       Zr  0.85896089  0.48150246  0.65652285     2.06300
Zr81       Zr  0.75578111  0.49993592  0.66390268     2.10000
Zr82       Zr  0.80311782  0.44876959  0.69338329     1.78800
O83         O  0.72559194  0.53476252  0.66718707    -0.93700
O84         O  0.83823019  0.42537942  0.71262558    -0.41600
O85         O  0.78609686  0.48993427  0.69533140    -0.78200
O86         O  0.83484769  0.48096030  0.69515283    -0.96900
O87         O  0.84182226  0.52300670  0.66136582    -0.90200
O88         O  0.78690525  0.53347867  0.66545331    -0.93000
C89         C  0.80265490  0.40003640  0.65172259     1.00700
C90         C  0.75300135  0.49471106  0.59340172     1.13700
C91         C  0.85831129  0.43692520  0.60885636     1.04400
O92         O  0.89515128  0.45661533  0.67115515    -0.95200
O93         O  0.88395547  0.49810137  0.69123454    -0.90900
O94         O  0.85901076  0.52120136  0.71731827    -0.84100
C95         C  0.88025035  0.51079758  0.71159157     1.11100
O96         O  0.80837974  0.53140406  0.58203696    -0.97200
Zr97       Zr  0.81325974  0.53404541  0.62777070     1.88900
O98         O  0.81611843  0.56616076  0.68387099    -0.73800
O99         O  0.88915407  0.50148145  0.62802254    -0.53100
O100        O  0.84828298  0.55033663  0.60244390    -0.97700
O101        O  0.77942380  0.56291345  0.61485737    -0.55000
O102        O  0.82883068  0.57334731  0.64502135    -0.74300
C103        C  0.83293784  0.57445237  0.66870376     0.98000
O104        O  0.81372090  0.54749126  0.73761656    -0.63100
O105        O  0.71746624  0.47419665  0.66350341    -0.57900
O106        O  0.78572003  0.51484182  0.73244094    -0.94600
O107        O  0.74958397  0.50075831  0.71331467    -0.93000
O108        O  0.76488167  0.43094403  0.71213462    -0.93400
O109        O  0.80475980  0.44950921  0.73946049    -0.92200
C110        C  0.76287870  0.50654622  0.73383310     1.16900
H111        H  0.76053806  0.44489509  0.65807939     0.32800
H112        H  0.84526737  0.47665087  0.70958968     0.43700
H113        H  0.77813166  0.54932447  0.66798875     0.37200
H114        H  0.84127737  0.49207500  0.60588104     0.33700
H115        H  0.83086085  0.40905481  0.71819868     0.25500
H116        H  0.89292128  0.48849219  0.61512641     0.31400
H117        H  0.84252634  0.56714390  0.59626504     0.37300
H118        H  0.76846412  0.41261079  0.71373556     0.31800
H119        H  0.70334139  0.48658655  0.66329405     0.30600
H120        H  0.73309582  0.54876831  0.65718441     0.32300
H121        H  0.78153697  0.57801151  0.62568693     0.31300
H122        H  0.81156497  0.46643852  0.74365005     0.35300
H123        H  0.83131766  0.55227470  0.74180095     0.28000
H124        H  0.79248198  0.42510901  0.58144013     0.32300
H125        H  0.81291625  0.51381190  0.57755958     0.35100
H126        H  0.71712783  0.46661409  0.64639122     0.27700
H127        H  0.80529320  0.56355004  0.73265437     0.40600
H128        H  0.88774051  0.44069340  0.67779114     0.30600
H129        H  0.84948068  0.42092124  0.69831337     0.38300
H130        H  0.76362444  0.55487513  0.62095994     0.30100
H131        H  0.87931051  0.51455802  0.61878334     0.30200
H132        H  0.76637846  0.42661981  0.59556975     0.30400
Zr133      Zr  0.70426286  0.49072441  0.19818099     2.17500
O134        O  0.71027229  0.46894998  0.23866097    -0.51900
O135        O  0.70858245  0.44658061  0.18616678    -0.75100
O136        O  0.66191676  0.48772518  0.21568560    -0.81900
O137        O  0.76776199  0.51990826  0.21230045    -0.83600
O138        O  0.63523309  0.50807769  0.18857304    -0.79300
O139        O  0.73349942  0.50235107  0.23187761    -0.90900
O140        O  0.69740029  0.43612040  0.14765776    -0.76900
O141        O  0.68077885  0.48426181  0.16007779    -0.86400
O142        O  0.73567253  0.48199253  0.16656972    -0.86100
O143        O  0.68036199  0.52904274  0.19014083    -0.72800
O144        O  0.72969409  0.52763683  0.19363576    -0.84900
Zr145      Zr  0.71257821  0.55286369  0.11778703     2.26400
Zr146      Zr  0.65781105  0.52192822  0.15085285     2.06300
Zr147      Zr  0.76107954  0.51967841  0.16270659     2.10000
Zr148      Zr  0.71135318  0.47529747  0.12808222     1.78800
O149        O  0.79683119  0.54875759  0.16081608    -0.93700
O150        O  0.67788904  0.45570203  0.10282435    -0.41600
O151        O  0.73330459  0.51414715  0.12826622    -0.78200
O152        O  0.68792729  0.51404874  0.11757365    -0.96900
O153        O  0.68214445  0.56011944  0.14979821    -0.90200
O154        O  0.73807786  0.55900278  0.15496047    -0.93000
C155        C  0.69288911  0.43584528  0.17132622     1.00700
C156        C  0.75532539  0.51297694  0.23305798     1.13700
C157        C  0.64026386  0.49712900  0.20985708     1.04400
O158        O  0.64051205  0.49232952  0.12028174    -0.95200
O159        O  0.64427237  0.55885172  0.12613548    -0.90900
O160        O  0.67303145  0.55957011  0.09484383    -0.84100
C161        C  0.65190418  0.56671248  0.10438066     1.11100
O162        O  0.74178020  0.59173237  0.20154432    -0.97200
Zr163      Zr  0.70658395  0.56571031  0.18705419     1.88900
O164        O  0.71060662  0.59852947  0.12520298    -0.73800
O165        O  0.61199116  0.52792447  0.15416550    -0.53100
O166        O  0.70807412  0.56855288  0.23298043    -0.97700
O167        O  0.66815492  0.58280276  0.20628384    -0.55000
O168        O  0.69860947  0.60511426  0.16564303    -0.74300
C169        C  0.70270000  0.61287364  0.14309403     0.98000
O170        O  0.72417213  0.57072522  0.07659577    -0.63100
O171        O  0.79452426  0.48794569  0.16590820    -0.57900
O172        O  0.75171592  0.54706963  0.09452070    -0.94600
O173        O  0.76819059  0.51278287  0.11387966    -0.93000
O174        O  0.75095844  0.45136620  0.12598731    -0.93400
O175        O  0.72318331  0.46932734  0.08378576    -0.92200
C176        C  0.76303813  0.52578746  0.09299629     1.16900
H177        H  0.74640048  0.46781614  0.17114159     0.32800
H178        H  0.67972785  0.51217363  0.10129485     0.43700
H179        H  0.74929377  0.57333549  0.15309285     0.37200
H180        H  0.66953899  0.53323578  0.20417735     0.33700
H181        H  0.67516955  0.46687589  0.08792524     0.25500
H182        H  0.60978557  0.54501112  0.16144598     0.31400
H183        H  0.70237612  0.55169617  0.23896999     0.37300
H184        H  0.74674901  0.43437808  0.13276003     0.31800
H185        H  0.80849871  0.49476803  0.15539806     0.30600
H186        H  0.79466825  0.55786282  0.14449175     0.32300
H187        H  0.65441277  0.57894384  0.19405616     0.31300
H188        H  0.74173353  0.46652478  0.08330380     0.35300
H189        H  0.71213170  0.56345125  0.06425112     0.28000
H190        H  0.71893637  0.45284562  0.23458378     0.32300
H191        H  0.73471390  0.60906519  0.20262685     0.35100
H192        H  0.80079229  0.48921850  0.18355331     0.27700
H193        H  0.71962690  0.58890222  0.07737398     0.40600
H194        H  0.63220299  0.50307587  0.10724824     0.30600
H195        H  0.68539390  0.44000991  0.09590451     0.38300
H196        H  0.66996384  0.60142958  0.20547155     0.30100
H197        H  0.60562836  0.52948637  0.13654389     0.30200
H198        H  0.69318837  0.46390482  0.24432299     0.30400
Zr199      Zr  0.70755219  0.46970788  0.36954666     2.17500
O200        O  0.68674494  0.48330392  0.33021547    -0.51900
O201        O  0.66812380  0.49279061  0.37675612    -0.75100
O202        O  0.68918879  0.43482359  0.34662596    -0.81900
O203        O  0.76044644  0.51765647  0.36552442    -0.83600
O204        O  0.67817235  0.40600986  0.37613607    -0.79300
O205        O  0.73304882  0.49518903  0.34106065    -0.90900
O206        O  0.65716675  0.49214943  0.41827142    -0.76900
O207        O  0.68904333  0.44417815  0.40169971    -0.86400
O208        O  0.70900970  0.49628979  0.40613540    -0.86100
O209        O  0.73354962  0.43190724  0.37184420    -0.72800
O210        O  0.75094143  0.47826482  0.37850162    -0.84900
Zr211      Zr  0.75977599  0.44198531  0.44988888     2.26400
Zr212      Zr  0.71496518  0.40688634  0.40504209     2.06300
Zr213      Zr  0.75308207  0.50558715  0.41380183     2.10000
Zr214      Zr  0.69074140  0.46944694  0.43852468     1.78800
O215        O  0.79435672  0.52504372  0.42070728    -0.93700
O216        O  0.65344971  0.44300458  0.44528192    -0.41600
O217        O  0.73423190  0.47804161  0.44356383    -0.78200
O218        O  0.71551410  0.43149904  0.44328439    -0.96900
O219        O  0.75887068  0.41632126  0.41316349    -0.90200
O220        O  0.77928111  0.46826238  0.41843298    -0.93000
C221        C  0.65350169  0.49859071  0.39526497     1.00700
C222        C  0.75116405  0.51110950  0.34304345     1.13700
C223        C  0.67421221  0.41773493  0.35501519     1.04400
O224        O  0.68497890  0.38137913  0.42918128    -0.95200
O225        O  0.74021905  0.37691728  0.43076713    -0.90900
O226        O  0.74610733  0.40130875  0.46478942    -0.84100
C227        C  0.74883949  0.38038859  0.45331167     1.11100
O228        O  0.78066051  0.44013188  0.33543572    -0.97200
Zr229      Zr  0.77735908  0.44197711  0.38142993     1.88900
O230        O  0.80410968  0.43013142  0.44624026    -0.73800
O231        O  0.72126004  0.37294109  0.37464835    -0.53100
O232        O  0.78959572  0.40011587  0.36682559    -0.97700
O233        O  0.81060396  0.47085703  0.36742287    -0.55000
O234        O  0.81448981  0.42797415  0.40469509    -0.74300
C235        C  0.81977278  0.42572345  0.42830319     0.98000
O236        O  0.77622439  0.43884008  0.49324263    -0.63100
O237        O  0.73688294  0.54879221  0.41407505    -0.57900
O238        O  0.75662789  0.47333378  0.48247990    -0.94600
O239        O  0.75039526  0.51162001  0.46345153    -0.93000
O240        O  0.68656259  0.50658809  0.46526412    -0.93400
O241        O  0.68269144  0.46493145  0.48376594    -0.92200
C242        C  0.75196641  0.49702130  0.48397857     1.16900
H243        H  0.70020153  0.51219770  0.40404593     0.32800
H244        H  0.70805381  0.42200108  0.45704708     0.43700
H245        H  0.79644801  0.47290191  0.42284244     0.37200
H246        H  0.73311096  0.42264539  0.35613189     0.33700
H247        H  0.64619960  0.44025843  0.42819484     0.25500
H248        H  0.73699577  0.36433384  0.38029713     0.31400
H249        H  0.77333928  0.39113375  0.36420666     0.37300
H250        H  0.69890417  0.51888022  0.45829935     0.31800
H251        H  0.72885026  0.55112286  0.39723735     0.30600
H252        H  0.79700112  0.52406208  0.43928178     0.32300
H253        H  0.80194457  0.48338757  0.35637535     0.31300
H254        H  0.68872782  0.44776431  0.48836858     0.35300
H255        H  0.76557617  0.42617216  0.50210626     0.28000
H256        H  0.69731865  0.47718802  0.31600826     0.32300
H257        H  0.76382690  0.44567456  0.32911172     0.35100
H258        H  0.72250791  0.54841761  0.42613897     0.27700
H259        H  0.79329737  0.43108894  0.49236795     0.40600
H260        H  0.67657359  0.37057012  0.41642055     0.30600
H261        H  0.66027690  0.42625717  0.45039443     0.38300
H262        H  0.82138827  0.46086001  0.35583838     0.30100
H263        H  0.70760498  0.36064909  0.37844321     0.30200
H264        H  0.68775902  0.50201923  0.32946618     0.30400
Zr265      Zr  0.18519202  0.68634644  0.47262365     2.17500
O266        O  0.23079054  0.68207088  0.48002817    -0.51900
O267        O  0.18441479  0.67455322  0.42850653    -0.75100
O268        O  0.20373131  0.64568638  0.47103537    -0.81900
O269        O  0.19004472  0.75102039  0.48143795    -0.83600
O270        O  0.18041215  0.61924163  0.49542161    -0.79300
O271        O  0.20690145  0.72228145  0.45572021    -0.90900
O272        O  0.14368733  0.66539048  0.41856199    -0.76900
O273        O  0.15356644  0.65482857  0.47327878    -0.86400
O274        O  0.14939161  0.70619400  0.45292851    -0.86100
O275        O  0.18032957  0.67528167  0.51664938    -0.72800
O276        O  0.17553328  0.72150959  0.49892812    -0.84900
Zr277      Zr  0.10096470  0.69934379  0.52298550     2.26400
Zr278      Zr  0.14738930  0.64408255  0.51665131     2.06300
Zr279      Zr  0.14080659  0.74233017  0.47905386     2.10000
Zr280      Zr  0.11748487  0.67375366  0.45482455     1.78800
O281        O  0.13838496  0.78522686  0.49542011    -0.93700
O282        O  0.11256670  0.62823322  0.44863634    -0.41600
O283        O  0.10861352  0.71010476  0.47968073    -0.78200
O284        O  0.10959747  0.66216189  0.49818886    -0.96900
O285        O  0.13736136  0.68033640  0.54170520    -0.90200
O286        O  0.13292960  0.73173672  0.52241980    -0.93000
C287        C  0.16728126  0.66701224  0.41309235     1.00700
C288        C  0.21007052  0.74103457  0.47025205     1.13700
C289        C  0.19878227  0.62383934  0.48001542     1.04400
O290        O  0.12094129  0.60714033  0.50887751    -0.95200
O291        O  0.12522600  0.64245587  0.55695670    -0.90900
O292        O  0.08875034  0.66133975  0.54585333    -0.84100
C293        C  0.10269839  0.64988624  0.56215167     1.11100
O294        O  0.21356798  0.70924402  0.55396583    -0.97200
Zr295      Zr  0.16891241  0.71143826  0.54211928     1.88900
O296        O  0.10151212  0.72503683  0.56082167    -0.73800
O297        O  0.17288438  0.61724570  0.54454340    -0.53100
O298        O  0.17397365  0.68754873  0.58141888    -0.97700
O299        O  0.19003802  0.75207320  0.54748892    -0.55000
O300        O  0.14220529  0.73186058  0.57303576    -0.74300
C301        C  0.11824207  0.73530901  0.57506442     0.98000
O302        O  0.05705875  0.69571455  0.53753014    -0.63100
O303        O  0.14238383  0.76520203  0.43881375    -0.57900
O304        O  0.07042443  0.72452056  0.49935320    -0.94600
O305        O  0.09258336  0.75302648  0.47569089    -0.93000
O306        O  0.07262926  0.66431379  0.44886585    -0.93400
O307        O  0.09547949  0.69342214  0.41918801    -0.92200
C308        C  0.07104969  0.74336819  0.48400299     1.16900
H309        H  0.15285828  0.71147336  0.43574617     0.32800
H310        H  0.09562255  0.65038061  0.49910169     0.43700
H311        H  0.12813100  0.74750683  0.53015022     0.37200
H312        H  0.19585070  0.66777454  0.52299555     0.33700
H313        H  0.10755540  0.62654334  0.43063829     0.25500
H314        H  0.17261364  0.62570721  0.56122128     0.31400
H315        H  0.18140633  0.67118868  0.57616405     0.37300
H316        H  0.06854625  0.65111932  0.46161360     0.31800
H317        H  0.15295608  0.75477268  0.42745345     0.30600
H318        H  0.15514774  0.78812977  0.50339661     0.32300
H319        H  0.18009805  0.76107884  0.56053898     0.31300
H320        H  0.09637822  0.71178721  0.42263021     0.35300
H321        H  0.05115156  0.71307100  0.54136962     0.28000
H322        H  0.23941733  0.68852152  0.46464802     0.32300
H323        H  0.22248987  0.70432199  0.53826452     0.35100
H324        H  0.12496877  0.76382863  0.43184303     0.27700
H325        H  0.04690544  0.69026519  0.52271123     0.40600
H326        H  0.10997678  0.60566167  0.52403339     0.30600
H327        H  0.12987903  0.62093993  0.44942901     0.38300
H328        H  0.18650605  0.76153555  0.53162364     0.30100
H329        H  0.16258027  0.60176818  0.54698448     0.30200
H330        H  0.23489338  0.69431707  0.49352204     0.30400
Zr331      Zr  0.93333150  0.74052372  0.54752354     2.17500
O332        O  0.97104667  0.71353778  0.54841294    -0.51900
O333        O  0.91599741  0.69825991  0.54510254    -0.75100
O334        O  0.95351978  0.73941744  0.58931759    -0.81900
O335        O  0.94070130  0.76360984  0.48020070    -0.83600
O336        O  0.92570653  0.75375829  0.61869991    -0.79300
O337        O  0.96374091  0.74993552  0.51429256    -0.90900
O338        O  0.88227483  0.69149038  0.56796218    -0.76900
O339        O  0.89724034  0.73664394  0.57418031    -0.86400
O340        O  0.89864636  0.73125270  0.51891839    -0.86100
O341        O  0.92944656  0.78017510  0.56974382    -0.72800
O342        O  0.92724437  0.77535127  0.51905741    -0.84900
Zr343      Zr  0.85393056  0.80315836  0.54156344     2.26400
Zr344      Zr  0.89235983  0.77556534  0.59572578     2.06300
Zr345      Zr  0.89192647  0.76742571  0.49192965     2.10000
Zr346      Zr  0.86236692  0.72718043  0.54675008     1.78800
O347        O  0.88822024  0.79856015  0.45773035    -0.93700
O348        O  0.83131778  0.71448947  0.57901916    -0.41600
O349        O  0.86299024  0.76440958  0.52373002    -0.78200
O350        O  0.85611243  0.76660048  0.56958771    -0.96900
O351        O  0.88951968  0.81066860  0.56787782    -0.90200
O352        O  0.88836509  0.80822335  0.51242153    -0.93000
C353        C  0.90590454  0.68846785  0.56464183     1.00700
C354        C  0.96263604  0.75770656  0.49127485     1.13700
C355        C  0.94734977  0.74475803  0.61228398     1.04400
O356        O  0.86698439  0.75415932  0.62781295    -0.95200
O357        O  0.86334761  0.80784599  0.61037078    -0.90900
O358        O  0.83200250  0.80925903  0.58125007    -0.84100
C359        C  0.84168050  0.81569754  0.60247494     1.11100
O360        O  0.96916511  0.80901913  0.55063597    -0.97200
Zr361      Zr  0.92439133  0.81456995  0.53999959     1.88900
O362        O  0.86580842  0.84820492  0.54294549    -0.73800
O363        O  0.91212026  0.80358893  0.62658965    -0.53100
O364        O  0.95045448  0.85231748  0.54532531    -0.97700
O365        O  0.93146835  0.83120407  0.49728105    -0.55000
O366        O  0.90351892  0.84802075  0.56258104    -0.74300
C367        C  0.88281301  0.85902490  0.55658090     0.98000
O368        O  0.81723197  0.83157098  0.53694223    -0.63100
O369        O  0.89041280  0.73926580  0.45549119    -0.57900
O370        O  0.82414077  0.79405119  0.50745237    -0.94600
O371        O  0.84214971  0.75975150  0.48997036    -0.93000
O372        O  0.86099724  0.69535214  0.51338543    -0.93400
O373        O  0.82064109  0.71771530  0.52933041    -0.92200
C374        C  0.82163590  0.77251690  0.49695311     1.16900
H375        H  0.90179403  0.71701977  0.50796288     0.32800
H376        H  0.84128142  0.76502479  0.58016041     0.43700
H377        H  0.88513425  0.82208517  0.50085917     0.37200
H378        H  0.94381837  0.78373586  0.58042456     0.33700
H379        H  0.83557200  0.69676069  0.58355674     0.25500
H380        H  0.91159082  0.79434271  0.64295211     0.31400
H381        H  0.95312280  0.85397656  0.56383980     0.37300
H382        H  0.86135074  0.67883216  0.52235462     0.31800
H383        H  0.90553361  0.72825219  0.45739497     0.30600
H384        H  0.87063915  0.79663392  0.45139612     0.32300
H385        H  0.93457147  0.81617053  0.48661368     0.31300
H386        H  0.81665257  0.70012478  0.53456787     0.35300
H387        H  0.81824780  0.83936619  0.51984369     0.28000
H388        H  0.97217778  0.70569825  0.53144385     0.32300
H389        H  0.97305635  0.79115240  0.54662236     0.35100
H390        H  0.87586516  0.72794293  0.45893631     0.27700
H391        H  0.80156990  0.82128711  0.53692293     0.40600
H392        H  0.87442087  0.75959341  0.64413594     0.30600
H393        H  0.83563822  0.72415427  0.59442559     0.38300
H394        H  0.94803713  0.83997908  0.49789612     0.30100
H395        H  0.93032224  0.80418264  0.62199997     0.30200
H396        H  0.98581978  0.72504077  0.54950741     0.30400
Zr397      Zr  0.59720151  0.80310578  0.46218131     2.17500
O398        O  0.55330548  0.79816281  0.44804059    -0.51900
O399        O  0.59985002  0.78999325  0.41861906    -0.75100
O400        O  0.57957102  0.84396899  0.45133435    -0.81900
O401        O  0.59120933  0.74391444  0.50111719    -0.83600
O402        O  0.61356584  0.86796018  0.44328150    -0.79300
O403        O  0.56788035  0.77282857  0.47880608    -0.90900
O404        O  0.64104463  0.78619110  0.40719914    -0.76900
O405        O  0.63100942  0.82905223  0.44840176    -0.86400
O406        O  0.63175919  0.77404815  0.45656397    -0.86100
O407        O  0.60207193  0.83343450  0.49568846    -0.72800
O408        O  0.60663572  0.78358627  0.50177406    -0.84900
Zr409      Zr  0.67985977  0.81030680  0.51585607     2.26400
Zr410      Zr  0.63750802  0.85858010  0.48204300     2.06300
Zr411      Zr  0.64026907  0.75409520  0.49670422     2.10000
Zr412      Zr  0.66544389  0.80149340  0.44236038     1.78800
O413        O  0.64554039  0.72503471  0.53235357    -0.93700
O414        O  0.70957273  0.81271877  0.43400210    -0.41600
O415        O  0.67346535  0.78120430  0.48202184    -0.78200
O416        O  0.67327958  0.83120394  0.47581643    -0.96900
O417        O  0.64533688  0.83837283  0.52183881    -0.90200
O418        O  0.64648426  0.78363106  0.53055569    -0.93000
C419        C  0.61734403  0.78254154  0.40371841     1.00700
C420        C  0.56914780  0.75340791  0.49322170     1.13700
C421        C  0.59130521  0.85999244  0.43761683     1.04400
O422        O  0.65732946  0.89440189  0.46063846    -0.95200
O423        O  0.67055655  0.87997662  0.50671067    -0.90900
O424        O  0.69555213  0.85091382  0.52633536    -0.84100
C425        C  0.68938828  0.87362059  0.52111080     1.11100
O426        O  0.56591018  0.81044053  0.54162448    -0.97200
Zr427      Zr  0.61158406  0.81244488  0.53533796     1.88900
O428        O  0.67892570  0.81338188  0.56145042    -0.73800
O429        O  0.60778268  0.88837381  0.50082762    -0.53100
O430        O  0.59497787  0.85172177  0.55268839    -0.97700
O431        O  0.59794149  0.77964744  0.56494412    -0.55000
O432        O  0.63799043  0.82222510  0.57127621    -0.74300
C433        C  0.66162389  0.82079370  0.57670668     0.98000
O434        O  0.72490203  0.81887025  0.50936099    -0.63100
O435        O  0.63719876  0.71479701  0.47300220    -0.57900
O436        O  0.70462381  0.77325904  0.52490867    -0.94600
O437        O  0.69017568  0.74824872  0.49413844    -0.93000
O438        O  0.68652413  0.76539616  0.42302267    -0.93400
O439        O  0.66833899  0.83540439  0.41094362    -0.92200
C440        C  0.70931928  0.75725109  0.50763384     1.16900
H441        H  0.62813263  0.76046431  0.44498846     0.32800
H442        H  0.68799922  0.84127991  0.47169341     0.43700
H443        H  0.65079464  0.77508165  0.54623526     0.37200
H444        H  0.58696667  0.84365256  0.49764576     0.33700
H445        H  0.71963859  0.80416396  0.44737834     0.25500
H446        H  0.61693454  0.89522437  0.51567871     0.31400
H447        H  0.58715905  0.84681627  0.56904247     0.37300
H448        H  0.67511729  0.75088844  0.42635481     0.31800
H449        H  0.63418619  0.70157415  0.48604187     0.30600
H450        H  0.66179053  0.71624798  0.52897837     0.32300
H451        H  0.61130153  0.77903027  0.57815942     0.31300
H452        H  0.65117573  0.83688396  0.40338683     0.35300
H453        H  0.73378251  0.81216084  0.52454409     0.28000
H454        H  0.55295147  0.80461539  0.43038657     0.32300
H455        H  0.55862901  0.82074916  0.52763826     0.35100
H456        H  0.62086323  0.71612419  0.46376264     0.27700
H457        H  0.73017275  0.80772690  0.49531221     0.40600
H458        H  0.65057519  0.90956909  0.46926301     0.30600
H459        H  0.71431771  0.80420478  0.41803042     0.38300
H460        H  0.60003229  0.76363615  0.55551625     0.30100
H461        H  0.60693370  0.90267699  0.48863791     0.30200
H462        H  0.54334396  0.81070817  0.45774118     0.30400
Zr463      Zr  0.34985562  0.69736422  0.44623333     2.17500
O464        O  0.30931108  0.67485053  0.44679322    -0.51900
O465        O  0.36302141  0.65297119  0.45058696    -0.75100
O466        O  0.32833445  0.68697492  0.40720348    -0.81900
O467        O  0.33966445  0.74131467  0.49714300    -0.83600
O468        O  0.35907365  0.69054838  0.37812373    -0.79300
O469        O  0.32301405  0.70505746  0.48305712    -0.90900
O470        O  0.40306366  0.64958820  0.43572552    -0.76900
O471        O  0.38411211  0.69120138  0.41786827    -0.86400
O472        O  0.38628087  0.69481234  0.47356577    -0.86100
O473        O  0.34854781  0.73473962  0.41929423    -0.72800
O474        O  0.35618064  0.73775648  0.46472468    -0.84900
Zr475      Zr  0.42630151  0.76417754  0.43649532     2.26400
Zr476      Zr  0.38331517  0.72758399  0.39086350     2.06300
Zr477      Zr  0.38945095  0.73562319  0.49409916     2.10000
Zr478      Zr  0.42076744  0.68969896  0.44408203     1.78800
O479        O  0.38882787  0.76532363  0.52920195    -0.93700
O480        O  0.44601489  0.66960354  0.41110700    -0.41600
O481        O  0.42245001  0.72905536  0.46448483    -0.78200
O482        O  0.42218264  0.72434136  0.41485940    -0.96900
O483        O  0.38882701  0.76767412  0.41100143    -0.90200
O484        O  0.39282915  0.77197753  0.46660730    -0.93000
C485        C  0.38206954  0.64008149  0.44253173     1.00700
C486        C  0.31959091  0.72712308  0.49212383     1.13700
C487        C  0.33849592  0.68051483  0.38625492     1.04400
O488        O  0.39373265  0.71107923  0.34921630    -0.95200
O489        O  0.41937729  0.74344967  0.36732248    -0.90900
O490        O  0.44414221  0.76637581  0.39366543    -0.84100
C491        C  0.43911646  0.75678883  0.37184542     1.11100
O492        O  0.31185920  0.78579402  0.45243909    -0.97200
Zr493      Zr  0.35519724  0.77524544  0.44040281     1.88900
O494        O  0.41096213  0.80705648  0.44187810    -0.73800
O495        O  0.35335810  0.75207806  0.36535936    -0.53100
O496        O  0.32617041  0.78448351  0.40548634    -0.97700
O497        O  0.34664671  0.80033926  0.47817490    -0.55000
O498        O  0.37327001  0.81461326  0.42561797    -0.74300
C499        C  0.39722184  0.81751009  0.42499135     0.98000
O500        O  0.46577204  0.78806136  0.43900208    -0.63100
O501        O  0.38773326  0.70563491  0.52928280    -0.57900
O502        O  0.45887454  0.75453526  0.46788038    -0.94600
O503        O  0.43844033  0.73920160  0.50282010    -0.93000
O504        O  0.43356740  0.66665223  0.48216357    -0.93400
O505        O  0.46664536  0.69134720  0.44860115    -0.92200
C506        C  0.45939784  0.74582764  0.49064435     1.16900
H507        H  0.38500563  0.68099814  0.48558048     0.32800
H508        H  0.43670574  0.72077128  0.40435258     0.43700
H509        H  0.39564836  0.78649125  0.47729053     0.37200
H510        H  0.33255775  0.73520239  0.41029950     0.33700
H511        H  0.45094607  0.65288290  0.41817840     0.25500
H512        H  0.35837612  0.74867080  0.34764269     0.31400
H513        H  0.33672323  0.79262408  0.39229538     0.37300
H514        H  0.43548699  0.67987606  0.49524192     0.31800
H515        H  0.40415418  0.70779498  0.53817936     0.30600
H516        H  0.40055438  0.77901802  0.52402228     0.32300
H517        H  0.35893638  0.81448099  0.47754847     0.31300
H518        H  0.47169098  0.70704747  0.43960325     0.35300
H519        H  0.46831417  0.79576776  0.42208208     0.28000
H520        H  0.30909288  0.66461805  0.46257877     0.32300
H521        H  0.30905428  0.80352740  0.44686673     0.35100
H522        H  0.37498134  0.71282936  0.54096365     0.27700
H523        H  0.46200039  0.80243968  0.45035387     0.40600
H524        H  0.40561215  0.69689746  0.35259979     0.30600
H525        H  0.43376111  0.66568010  0.39743113     0.38300
H526        H  0.35213985  0.78980879  0.49277586     0.30100
H527        H  0.33696025  0.74313907  0.36711897     0.30200
H528        H  0.29571492  0.68764204  0.44876727     0.30400
Zr529      Zr  0.67989838  0.01081774  0.03107974     2.17500
O530        O  0.67934906  0.01976182  0.07658290    -0.51900
O531        O  0.71873645  0.03617412  0.03638032    -0.75100
O532        O  0.69884480  0.97895553  0.05514663    -0.81900
O533        O  0.61920003  0.04695399  0.02629307    -0.83600
O534        O  0.73473388  0.97922577  0.03219637    -0.79300
O535        O  0.64738489  0.03170785  0.05505353    -0.90900
O536        O  0.71047161  0.07007202  0.01225317    -0.76900
O537        O  0.71277062  0.01872556  0.00124568    -0.86400
O538        O  0.66332448  0.04302058  0.00393427    -0.86100
O539        O  0.68733973  0.96994208  0.01098856    -0.72800
O540        O  0.64147430  0.99229155  0.01496259    -0.84900
Zr541      Zr  0.66575189  0.99393778  0.93527053     2.26400
Zr542      Zr  0.72140369  0.97888218  0.98235890     2.06300
Zr543      Zr  0.62561114  0.02436511  0.98679937     2.10000
Zr544      Zr  0.69560194  0.05032835  0.97374999     1.78800
O545        O  0.58869914  0.99867768  0.99712567    -0.93700
O546        O  0.73928990  0.05659490  0.95999265    -0.41600
O547        O  0.65764703  0.03345842  0.95585223    -0.78200
O548        O  0.70424782  0.01098786  0.95378993    -0.96900
O549        O  0.68342109  0.96179823  0.96240439    -0.90200
O550        O  0.63273236  0.98577028  0.96487016    -0.93000
C551        C  0.72453188  0.05826655  0.02803870     1.00700
C552        C  0.62922891  0.04634027  0.04847416     1.13700
C553        C  0.72271076  0.97776997  0.05456023     1.04400
O554        O  0.76647048  0.98885694  0.98055536    -0.95200
O555        O  0.73553561  0.97556506  0.93437361    -0.90900
O556        O  0.70228650  0.98661450  0.90880598    -0.84100
C557        C  0.72552631  0.98018178  0.91163579     1.11100
O558        O  0.65140240  0.92904177  0.03103625    -0.97200
Zr559      Zr  0.64982588  0.95376374  0.99186765     1.88900
O560        O  0.63807282  0.95877304  0.92288569    -0.73800
O561        O  0.73472297  0.93480173  0.98489225    -0.53100
O562        O  0.66575085  0.91081050  0.98649735    -0.97700
O563        O  0.60613127  0.94722106  0.00550028    -0.55000
O564        O  0.62894013  0.93361192  0.95650628    -0.74300
C565        C  0.62653545  0.93992660  0.93319942     0.98000
O566        O  0.66322301  0.99184958  0.88899446    -0.63100
O567        O  0.59256382  0.05654529  0.98257662    -0.57900
O568        O  0.63897253  0.02715720  0.91724680    -0.94600
O569        O  0.60877179  0.03773499  0.94583452    -0.93000
O570        O  0.68321055  0.09480142  0.97389362    -0.93400
O571        O  0.69246310  0.07209994  0.93304010    -0.92200
C572        C  0.61829928  0.03834144  0.92350183     1.16900
H573        H  0.66059355  0.05881083  0.01259667     0.32800
H574        H  0.71639203  0.01603902  0.94117431     0.43700
H575        H  0.61675388  0.98120148  0.95719268     0.37200
H576        H  0.69289445  0.95561455  0.02101468     0.33700
H577        H  0.74509244  0.07176789  0.96923240     0.25500
H578        H  0.71879253  0.92500118  0.98348996     0.31400
H579        H  0.67406675  0.91082356  0.96968402     0.37300
H580        H  0.67384831  0.09729715  0.98993144     0.31800
H581        H  0.57957438  0.05205493  0.99536438     0.30600
H582        H  0.58444996  0.00337231  0.01475538     0.32300
H583        H  0.60635852  0.94855103  0.02419991     0.31300
H584        H  0.70708500  0.06600818  0.92303668     0.35300
H585        H  0.64498547  0.98990319  0.88482235     0.28000
H586        H  0.69728861  0.02222132  0.08161308     0.32300
H587        H  0.65060293  0.94175900  0.04471484     0.35100
H588        H  0.60024518  0.07244171  0.98877706     0.27700
H589        H  0.66763480  0.00894685  0.88258288     0.40600
H590        H  0.77175792  0.99076318  0.99845486     0.30600
H591        H  0.74892028  0.04235894  0.96763409     0.38300
H592        H  0.60268315  0.92913530  0.00213541     0.30100
H593        H  0.74363111  0.93175087  0.96869979     0.30200
H594        H  0.67395925  0.00409784  0.08548152     0.30400
Zr595      Zr  0.73572592  0.91815930  0.68161654     2.17500
O596        O  0.70973522  0.92277687  0.64345462    -0.51900
O597        O  0.77122532  0.89826328  0.66024589    -0.75100
O598        O  0.74622160  0.95397451  0.65608521    -0.81900
O599        O  0.70102038  0.85515107  0.68924994    -0.83600
O600        O  0.75279976  0.98651652  0.68337506    -0.79300
O601        O  0.71355705  0.88474725  0.66049545    -0.90900
O602        O  0.80045690  0.88664174  0.68972433    -0.76900
O603        O  0.77014234  0.93480802  0.70598894    -0.86400
O604        O  0.74953896  0.88278552  0.70591423    -0.86100
O605        O  0.71880998  0.95329196  0.70513477    -0.72800
O606        O  0.69938876  0.90559043  0.70543057    -0.84900
Zr607      Zr  0.73214085  0.91794522  0.77923999     2.26400
Zr608      Zr  0.75303828  0.96922183  0.73110751     2.06300
Zr609      Zr  0.71383310  0.87041418  0.73063691     2.10000
Zr610      Zr  0.78390324  0.89891637  0.73030448     1.78800
O611        O  0.67619057  0.84380036  0.72895905    -0.93700
O612        O  0.82422360  0.92143219  0.72879123    -0.41600
O613        O  0.74921954  0.88368573  0.75565387    -0.78200
O614        O  0.76817199  0.93289847  0.75489078    -0.96900
O615        O  0.71793381  0.95432615  0.75556736    -0.90200
O616        O  0.69690823  0.90465719  0.75434167    -0.93000
C617        C  0.79199090  0.88744791  0.66702244     1.00700
C618        C  0.70269073  0.86403001  0.66666346     1.13700
C619        C  0.74993164  0.97742302  0.65999654     1.04400
O620        O  0.79606326  0.98585762  0.73134078    -0.95200
O621        O  0.75218344  0.97991470  0.78115110    -0.90900
O622        O  0.76097649  0.94364286  0.80136245    -0.84100
C623        C  0.75653351  0.96705395  0.80265141     1.11100
O624        O  0.65693673  0.95471404  0.69537512    -0.97200
Zr625      Zr  0.68369239  0.94001061  0.73020796     1.88900
O626        O  0.70295929  0.94812763  0.79734092    -0.73800
O627        O  0.73877284  0.01307261  0.73227034    -0.53100
O628        O  0.67369053  0.98495589  0.73253399    -0.97700
O629        O  0.64278039  0.91899876  0.72590129    -0.55000
O630        O  0.66801753  0.94332292  0.77326157    -0.74300
C631        C  0.68014139  0.95383010  0.79134971     0.98000
O632        O  0.74660483  0.89832479  0.81876366    -0.63100
O633        O  0.73790420  0.83115255  0.73400727    -0.57900
O634        O  0.70883697  0.88570853  0.80164640    -0.94600
O635        O  0.69691217  0.85751993  0.77167599    -0.93000
O636        O  0.79939754  0.85563537  0.73464871    -0.93400
O637        O  0.80854771  0.89159520  0.76877715    -0.92200
C638        C  0.69635267  0.86631174  0.79434484     1.16900
H639        H  0.75451309  0.86865243  0.69551997     0.32800
H640        H  0.78268331  0.93822442  0.76472149     0.43700
H641        H  0.68216863  0.89986006  0.76398674     0.37200
H642        H  0.71242391  0.96620242  0.69375760     0.33700
H643        H  0.83102645  0.91852207  0.71160061     0.25500
H644        H  0.72109950  0.01251586  0.72587311     0.31400
H645        H  0.65660592  0.98566097  0.74026410     0.37300
H646        H  0.79123164  0.84624758  0.72065404     0.31800
H647        H  0.74780301  0.83275160  0.74988181     0.30600
H648        H  0.66185101  0.85563357  0.73157647     0.32300
H649        H  0.64043302  0.90964737  0.74203350     0.31300
H650        H  0.79575502  0.88780544  0.78198033     0.35300
H651        H  0.76538446  0.89904490  0.81856737     0.28000
H652        H  0.72148912  0.92448843  0.62891417     0.32300
H653        H  0.66628821  0.94983367  0.67990170     0.35100
H654        H  0.72499424  0.81810333  0.73792070     0.27700
H655        H  0.74130138  0.90988166  0.83246700     0.40600
H656        H  0.80126174  0.98568132  0.71330364     0.30600
H657        H  0.81950680  0.93956408  0.72881813     0.38300
H658        H  0.64567790  0.90561566  0.71315575     0.30100
H659        H  0.73702360  0.01702899  0.75049373     0.30200
H660        H  0.70096173  0.93927551  0.64494642     0.30400
Zr661      Zr  0.82694116  0.00781279  0.43418931     2.17500
O662        O  0.82413450  0.01199460  0.38795121    -0.51900
O663        O  0.85073066  0.04632282  0.42279865    -0.75100
O664        O  0.78943047  0.00924194  0.40748035    -0.81900
O665        O  0.88738941  0.96824539  0.44579891    -0.83600
O666        O  0.75454109  0.01116396  0.43288780    -0.79300
O667        O  0.85798462  0.97848026  0.41595988    -0.90900
O668        O  0.85940695  0.06973312  0.45748550    -0.76900
O669        O  0.80465655  0.03663263  0.46124744    -0.86400
O670        O  0.85834457  0.01944560  0.46461336    -0.86100
O671        O  0.79195288  0.98434776  0.45284763    -0.72800
O672        O  0.84092646  0.96967155  0.45493408    -0.84900
Zr673      Zr  0.81512574  0.98760194  0.53041718     2.26400
Zr674      Zr  0.76995621  0.01320727  0.48086269     2.06300
Zr675      Zr  0.87109617  0.98225465  0.48644533     2.10000
Zr676      Zr  0.83668108  0.04859456  0.49129361     1.78800
O677        O  0.90883281  0.95552852  0.48553546    -0.93700
O678        O  0.81105990  0.08636968  0.48390386    -0.41600
O679        O  0.85060967  0.01136248  0.51441444    -0.78200
O680        O  0.80177931  0.02700805  0.50999426    -0.96900
O681        O  0.78798833  0.97716278  0.49807884    -0.90200
O682        O  0.83673013  0.95811849  0.50432721    -0.93000
C683        C  0.86259780  0.06428716  0.43410404     1.00700
C684        C  0.87869830  0.96758492  0.42309949     1.13700
C685        C  0.76526271  0.00927263  0.41016095     1.04400
O686        O  0.75693465  0.05763685  0.48148008    -0.95200
O687        O  0.75576476  0.00912074  0.53018878    -0.90900
O688        O  0.79049709  0.01592329  0.55387435    -0.84100
C689        C  0.76685398  0.01235916  0.55285304     1.11100
O690        O  0.81244005  0.92679540  0.43186630    -0.97200
Zr691      Zr  0.80678039  0.94685431  0.47313007     1.88900
O692        O  0.78224876  0.95515321  0.53692459    -0.73800
O693        O  0.72397657  0.00795305  0.47894240    -0.53100
O694        O  0.77073691  0.92597394  0.45314435    -0.97700
O695        O  0.83415095  0.91009336  0.48085370    -0.55000
O696        O  0.78588884  0.92501055  0.50688445    -0.74300
C697        C  0.77515043  0.93460482  0.52615734     0.98000
O698        O  0.81123846  0.98378630  0.57673509    -0.63100
O699        O  0.90389103  0.01368923  0.49448110    -0.57900
O700        O  0.85341972  0.97583661  0.55361149    -0.94600
O701        O  0.88104407  0.95998262  0.52527172    -0.93000
O702        O  0.87514076  0.06784394  0.50811496    -0.93400
O703        O  0.83298901  0.06946093  0.53220106    -0.92200
C704        C  0.87105620  0.96054968  0.54731705     1.16900
H705        H  0.87401349  0.02553673  0.45735859     0.32800
H706        H  0.79401688  0.04022815  0.51985956     0.43700
H707        H  0.84129254  0.94291109  0.51342692     0.37200
H708        H  0.78104633  0.97686722  0.44040995     0.33700
H709        H  0.82260724  0.10061723  0.48772032     0.25500
H710        H  0.71787201  0.01219635  0.49613076     0.31400
H711        H  0.77029980  0.90880158  0.46076877     0.37300
H712        H  0.87312589  0.08623035  0.50484167     0.31800
H713        H  0.90726781  0.01229652  0.51290662     0.30600
H714        H  0.90231162  0.93797959  0.48452438     0.32300
H715        H  0.84533343  0.90897562  0.46584124     0.31300
H716        H  0.83617304  0.05588674  0.54486012     0.35300
H717        H  0.81533480  0.96616261  0.58165239     0.28000
H718        H  0.83510600  0.99877258  0.38055347     0.32300
H719        H  0.81397634  0.94095295  0.41958910     0.35100
H720        H  0.91934087  0.00678850  0.48639198     0.27700
H721        H  0.82457424  0.99438175  0.58462390     0.40600
H722        H  0.76006458  0.06403933  0.46408348     0.30600
H723        H  0.80866141  0.08723366  0.46530192     0.38300
H724        H  0.82277060  0.89526535  0.47948831     0.30100
H725        H  0.71788667  0.02219729  0.46822121     0.30200
H726        H  0.83232752  0.02817467  0.38320875     0.30400
Zr727      Zr  0.75241327  0.07182990  0.18025248     2.17500
O728        O  0.74850244  0.07850309  0.13443035    -0.51900
O729        O  0.71838588  0.10017022  0.16535398    -0.75100
O730        O  0.74493021  0.03404639  0.15629560    -0.81900
O731        O  0.79304809  0.12903823  0.18311615    -0.83600
O732        O  0.73577281  0.00205921  0.18385532    -0.79300
O733        O  0.78867429  0.09244660  0.16182268    -0.90900
O734        O  0.69357784  0.11148728  0.19831263    -0.76900
O735        O  0.72008712  0.05704591  0.20838159    -0.86400
O736        O  0.74587454  0.10709354  0.20717526    -0.86100
O737        O  0.76941993  0.03450391  0.20146419    -0.72800
O738        O  0.79280170  0.07987737  0.19971521    -0.84900
Zr739      Zr  0.77008689  0.06790321  0.27637679     2.26400
Zr740      Zr  0.73706815  0.02042107  0.23079485     2.06300
Zr741      Zr  0.78576487  0.11532564  0.22681704     2.10000
Zr742      Zr  0.71341318  0.09281567  0.23519993     1.78800
O743        O  0.82297786  0.14128471  0.21838474    -0.93700
O744        O  0.67136730  0.07378383  0.23187261    -0.41600
O745        O  0.75268161  0.10414696  0.25579101    -0.78200
O746        O  0.72980810  0.05688529  0.25754520    -0.96900
O747        O  0.77622507  0.03152573  0.25033117    -0.90200
O748        O  0.80313353  0.07901914  0.24789367    -0.93000
C749        C  0.69997986  0.11285242  0.17499429     1.00700
C750        C  0.79573275  0.11549909  0.16320375     1.13700
C751        C  0.74002764  0.01077944  0.16048736     1.04400
O752        O  0.69220235  0.00958961  0.22993544    -0.95200
O753        O  0.73487247  0.00858820  0.28030578    -0.90900
O754        O  0.75130911  0.03987224  0.30512540    -0.84100
C755        C  0.74053441  0.01864203  0.30284895     1.11100
O756        O  0.82977747  0.03968429  0.18108720    -0.97200
Zr757      Zr  0.80860991  0.04349102  0.22184293     1.88900
O758        O  0.80049961  0.03881710  0.29468688    -0.73800
O759        O  0.74631791  0.97548640  0.23533672    -0.53100
O760        O  0.82247336  0.00147976  0.20902859    -0.97700
O761        O  0.85124743  0.05993703  0.22884250    -0.55000
O762        O  0.81789406  0.01976833  0.26033834    -0.74300
C763        C  0.81361174  0.02142256  0.28423543     0.98000
O764        O  0.75362963  0.08950628  0.31366952    -0.63100
O765        O  0.76438780  0.15520148  0.23547763    -0.57900
O766        O  0.79863127  0.09756519  0.29593624    -0.94600
O767        O  0.81001514  0.12527385  0.26503316    -0.93000
O768        O  0.70306418  0.13666352  0.24489690    -0.93400
O769        O  0.69176885  0.09811267  0.27559349    -0.92200
C770        C  0.81184904  0.11614401  0.28763737     1.16900
H771        H  0.74138137  0.12250890  0.19837968     0.32800
H772        H  0.71759976  0.05269856  0.27052821     0.43700
H773        H  0.81929677  0.08165611  0.25605863     0.37200
H774        H  0.77490691  0.02159069  0.18993785     0.33700
H775        H  0.67256815  0.06119919  0.21810059     0.25500
H776        H  0.73153010  0.96690877  0.22763204     0.31400
H777        H  0.80669033  0.99141951  0.20787025     0.37300
H778        H  0.71000386  0.14667976  0.23058349     0.31800
H779        H  0.77721531  0.16542188  0.24454952     0.30600
H780        H  0.83749384  0.12944592  0.22000967     0.32300
H781        H  0.85354895  0.07294325  0.21543792     0.31300
H782        H  0.70441729  0.10630518  0.28673182     0.35300
H783        H  0.73537592  0.08520574  0.31437535     0.28000
H784        H  0.73288008  0.06983717  0.12867369     0.32300
H785        H  0.81581485  0.04031691  0.16852087     0.35100
H786        H  0.76273760  0.16350593  0.21867955     0.27700
H787        H  0.76128004  0.08081718  0.32853963     0.40600
H788        H  0.68980747  0.00073346  0.21361261     0.30600
H789        H  0.66942869  0.06347146  0.24747334     0.38300
H790        H  0.86269043  0.04593135  0.22392548     0.30100
H791        H  0.76042672  0.97241058  0.22338537     0.30200
H792        H  0.76265697  0.06915847  0.12650850     0.30400
Zr793      Zr  0.73577293  0.74654439  0.06425630     2.17500
O794        O  0.69008977  0.74424734  0.07189659    -0.51900
O795        O  0.72756513  0.71906569  0.02808756    -0.75100
O796        O  0.71291079  0.77711635  0.04146696    -0.81900
O797        O  0.74018893  0.71735536  0.12969885    -0.83600
O798        O  0.73576257  0.77183734  0.00601768    -0.79300
O799        O  0.71342947  0.72260621  0.09641398    -0.90900
O800        O  0.75189157  0.68544559  0.03735102    -0.76900
O801        O  0.76494041  0.73553670  0.03146647    -0.86400
O802        O  0.76251070  0.71462122  0.08186869    -0.86100
O803        O  0.75745122  0.78581081  0.05285125    -0.72800
O804        O  0.75345852  0.76677353  0.10066807    -0.84900
Zr805      Zr  0.83287018  0.76175575  0.07517464     2.26400
Zr806      Zr  0.78551117  0.77365678  0.01912511     2.06300
Zr807      Zr  0.78087249  0.73478176  0.11767804     2.10000
Zr808      Zr  0.79192173  0.70434286  0.04982889     1.78800
O809        O  0.77353010  0.75916455  0.15597914    -0.93700
O810        O  0.80316481  0.69218090  0.00681957    -0.41600
O811        O  0.81107663  0.72338684  0.08595397    -0.78200
O812        O  0.81335853  0.74223544  0.03833576    -0.96900
O813        O  0.80627873  0.79326362  0.05553113    -0.90200
O814        O  0.80345956  0.77221620  0.10751769    -0.93000
C815        C  0.73556691  0.69672439  0.02335605     1.00700
C816        C  0.71919077  0.71329402  0.11816510     1.13700
C817        C  0.71338457  0.77470017  0.01772108     1.04400
O818        O  0.78357167  0.76071260  0.97488298    -0.95200
O819        O  0.83324012  0.77334642  0.00325455    -0.90900
O820        O  0.85867815  0.76646039  0.03753813    -0.84100
C821        C  0.85596181  0.76972034  0.01366102     1.11100
O822        O  0.73711785  0.82698105  0.08745014    -0.97200
Zr823      Zr  0.77730744  0.80398173  0.08885172     1.88900
O824        O  0.84649160  0.79866251  0.10017999    -0.73800
O825        O  0.78568558  0.81695393  0.00308781    -0.53100
O826        O  0.78464042  0.84470870  0.06823886    -0.97700
O827        O  0.76442129  0.81606207  0.13147027    -0.55000
O828        O  0.81274042  0.82287448  0.11075650    -0.74300
C829        C  0.83610060  0.81655789  0.11301787     0.98000
O830        O  0.87887427  0.75789013  0.08096332    -0.63100
O831        O  0.78551337  0.69601026  0.14264987    -0.57900
O832        O  0.85003191  0.73070158  0.10506122    -0.94600
O833        O  0.82151194  0.72546791  0.13671840    -0.93000
O834        O  0.79198376  0.66189672  0.06803305    -0.93400
O835        O  0.83334212  0.68378389  0.05144605    -0.92200
C836        C  0.84362708  0.72267632  0.12719515     1.16900
H837        H  0.75367800  0.69924321  0.08633965     0.32800
H838        H  0.82568347  0.73575848  0.02655804     0.43700
H839        H  0.81134292  0.77721160  0.12323423     0.37200
H840        H  0.74768535  0.79988685  0.04635130     0.33700
H841        H  0.79186759  0.67779841  0.00280508     0.25500
H842        H  0.78023187  0.81546929  0.98519076     0.31400
H843        H  0.77084743  0.84646354  0.05556710     0.37300
H844        H  0.79258780  0.66461828  0.08657076     0.31800
H845        H  0.77598390  0.69893317  0.15851847     0.30600
H846        H  0.76496551  0.74723356  0.16769248     0.32300
H847        H  0.74726121  0.80883862  0.13384839     0.31300
H848        H  0.84356659  0.69230928  0.03819309     0.35300
H849        H  0.88488412  0.74422704  0.06965798     0.28000
H850        H  0.68216674  0.74073863  0.05525137     0.32300
H851        H  0.72401240  0.81389852  0.09049054     0.35100
H852        H  0.77566467  0.68299536  0.13346711     0.27700
H853        H  0.88668143  0.77366093  0.07442784     0.40600
H854        H  0.80078087  0.76360184  0.96799660     0.30600
H855        H  0.79715256  0.70630625  0.99595056     0.38300
H856        H  0.76176923  0.83461019  0.13068655     0.30100
H857        H  0.77117866  0.82519220  0.01162665     0.30200
H858        H  0.68449423  0.76154610  0.07639618     0.30400
Zr859      Zr  0.58611097  0.67790195  0.99439845     2.17500
O860        O  0.63213860  0.67211639  0.99163020    -0.51900
O861        O  0.60223509  0.65476220  0.03176285    -0.75100
O862        O  0.61055275  0.71601371  0.99823407    -0.81900
O863        O  0.58035243  0.61582199  0.96131983    -0.83600
O864        O  0.58361655  0.74835140  0.00735593    -0.79300
O865        O  0.60294068  0.65197523  0.96081661    -0.90900
O866        O  0.57034445  0.64571521  0.05906878    -0.76900
O867        O  0.55942958  0.69599639  0.02624683    -0.86400
O868        O  0.55945275  0.64374236  0.00656173    -0.86100
O869        O  0.56443246  0.71361397  0.97477469    -0.72800
O870        O  0.56452476  0.66583081  0.95632365    -0.84900
Zr871      Zr  0.48940979  0.68020775  0.98160959     2.26400
Zr872      Zr  0.53644026  0.73093237  0.00652509     2.06300
Zr873      Zr  0.53786115  0.63135211  0.96897137     2.10000
Zr874      Zr  0.53268177  0.66134609  0.03830281     1.78800
O875        O  0.54221542  0.60590799  0.93089975    -0.93700
O876        O  0.53521188  0.68680800  0.07657177    -0.41600
O877        O  0.51032806  0.64565609  0.00178843    -0.78200
O878        O  0.51013761  0.69558044  0.01920592    -0.96900
O879        O  0.51462195  0.71602153  0.96987840    -0.90200
O880        O  0.51651915  0.66581702  0.94890880    -0.93000
C881        C  0.59354506  0.64448798  0.05217095     1.00700
C882        C  0.60058342  0.62827769  0.95657095     1.13700
C883        C  0.60677681  0.73933666  0.00299973     1.04400
O884        O  0.53742139  0.75012998  0.04830727    -0.95200
O885        O  0.48731469  0.74319672  0.01008229    -0.90900
O886        O  0.46192345  0.71019874  0.99846894    -0.84100
C887        C  0.46461951  0.73243580  0.00683056     1.11100
O888        O  0.58109106  0.70357124  0.91366415    -0.97200
Zr889      Zr  0.54182618  0.70074419  0.93787369     1.88900
O890        O  0.46902824  0.70583527  0.95002766    -0.73800
O891        O  0.53310680  0.77270593  0.98702794    -0.53100
O892        O  0.55129620  0.74345176  0.92310850    -0.97700
O893        O  0.53442523  0.68066426  0.89702522    -0.55000
O894        O  0.50120736  0.71805279  0.92406772    -0.74300
C895        C  0.47787334  0.71805497  0.93113668     0.98000
O896        O  0.45273135  0.66161543  0.00270522    -0.63100
O897        O  0.53416747  0.59186140  0.99268859    -0.57900
O898        O  0.46930517  0.64940194  0.95476564    -0.94600
O899        O  0.49763906  0.61758770  0.95091853    -0.93000
O900        O  0.52650876  0.61962862  0.05718190    -0.93400
O901        O  0.49067878  0.65619692  0.05703552    -0.92200
C902        C  0.47634613  0.62828691  0.94545862     1.16900
H903        H  0.56864806  0.62900883  0.01253943     0.32800
H904        H  0.49774842  0.70111331  0.03146021     0.43700
H905        H  0.50808137  0.66115794  0.93338087     0.37200
H906        H  0.57601060  0.72612898  0.96818865     0.33700
H907        H  0.52135750  0.69939016  0.07483178     0.25500
H908        H  0.54641142  0.77280537  0.97380844     0.31400
H909        H  0.54544974  0.74384438  0.90524828     0.37300
H910        H  0.52412868  0.60821167  0.04257441     0.31800
H911        H  0.51622641  0.59136062  0.99817518     0.30600
H912        H  0.54982745  0.61752431  0.91824004     0.32300
H913        H  0.54646665  0.66626729  0.89665289     0.31300
H914        H  0.49356409  0.65188189  0.07509825     0.35300
H915        H  0.43836592  0.66386310  0.99073537     0.28000
H916        H  0.63947676  0.67944407  0.00722518     0.32300
H917        H  0.59360034  0.69352998  0.92352871     0.35100
H918        H  0.53541467  0.57851710  0.97965329     0.27700
H919        H  0.45598241  0.64315472  0.00304092     0.40600
H920        H  0.52485975  0.76405650  0.04724885     0.30600
H921        H  0.52971815  0.67545186  0.09050566     0.38300
H922        H  0.54098259  0.69279913  0.88425627     0.30100
H923        H  0.51695065  0.77229668  0.97739757     0.30200
H924        H  0.63816116  0.68314454  0.97762651     0.30400
Zr925      Zr  0.33400608  0.74926104  0.92272248     2.17500
O926        O  0.37976315  0.74715410  0.91495310    -0.51900
O927        O  0.34477247  0.70996678  0.90035475    -0.75100
O928        O  0.36046547  0.74668195  0.96053262    -0.81900
O929        O  0.32173295  0.78583962  0.86101547    -0.83600
O930        O  0.33523998  0.74348797  0.99548439    -0.79300
O931        O  0.35167504  0.77798990  0.89099406    -0.90900
O932        O  0.30920940  0.68784631  0.89123271    -0.76900
O933        O  0.30661526  0.72056394  0.94498512    -0.86400
O934        O  0.30293314  0.73826258  0.89189348    -0.86100
O935        O  0.31642418  0.77191768  0.95853084    -0.72800
O936        O  0.31366067  0.78788152  0.90971715    -0.84900
Zr937      Zr  0.23825658  0.77065126  0.93508556     2.26400
Zr938      Zr  0.28762406  0.74311558  0.98035931     2.06300
Zr939      Zr  0.28136835  0.77593053  0.87995416     2.10000
Zr940      Zr  0.27588073  0.70930303  0.91351205     1.78800
O941        O  0.28280186  0.80325539  0.84258441    -0.93700
O942        O  0.28373751  0.67070050  0.93792042    -0.41600
O943        O  0.25310578  0.74678134  0.89981193    -0.78200
O944        O  0.25804068  0.73115335  0.94825485    -0.96900
O945        O  0.26912066  0.78166598  0.96601276    -0.90200
O946        O  0.26588102  0.79994930  0.91484379    -0.93000
C947        C  0.33290978  0.69220482  0.88870758     1.00700
C948        C  0.34444625  0.78706847  0.86949667     1.13700
C949        C  0.35782265  0.74550914  0.98465934     1.04400
O950        O  0.28712241  0.69880777  0.99320835    -0.95200
O951        O  0.23840577  0.74707845  0.99500737    -0.90900
O952        O  0.21383187  0.74394950  0.96011045    -0.84100
C953        C  0.21555908  0.74520335  0.98386261     1.11100
O954        O  0.33858775  0.83046171  0.94200041    -0.97200
Zr955      Zr  0.29713853  0.81020407  0.94511141     1.88900
O956        O  0.23141271  0.80172526  0.96859186    -0.73800
O957        O  0.28851889  0.75134856  0.02574939    -0.53100
O958        O  0.31401677  0.82298151  0.98613439    -0.97700
O959        O  0.29527975  0.85028643  0.92187467    -0.55000
O960        O  0.26200012  0.83157534  0.96468199    -0.74300
C961        C  0.24226624  0.82236736  0.97526957     0.98000
O962        O  0.19247854  0.76354995  0.93173129    -0.63100
O963        O  0.27027928  0.74533193  0.84744169    -0.57900
O964        O  0.21611947  0.79544427  0.90365062    -0.94600
O965        O  0.24286276  0.79940618  0.87046969    -0.93000
O966        O  0.25703317  0.69527186  0.87381455    -0.93400
O967        O  0.23766893  0.68406799  0.91956926    -0.92200
C968        C  0.22220777  0.80467608  0.88215456     1.16900
H969        H  0.31005235  0.73201339  0.87632293     0.32800
H970        H  0.24735992  0.71834867  0.95572977     0.43700
H971        H  0.25816471  0.81596283  0.91042404     0.37200
H972        H  0.32918165  0.77891840  0.96952604     0.33700
H973        H  0.28360072  0.65697619  0.92523466     0.25500
H974        H  0.29571713  0.73578737  0.03347908     0.31400
H975        H  0.30686976  0.84005293  0.98904457     0.37300
H976        H  0.24071363  0.70450079  0.87238355     0.31800
H977        H  0.25151099  0.74583448  0.84664920     0.30600
H978        H  0.28465203  0.82060502  0.84932700     0.32300
H979        H  0.27770647  0.85656597  0.92394897     0.31300
H980        H  0.22355915  0.69645192  0.91885290     0.35300
H981        H  0.18400656  0.78002321  0.93459553     0.28000
H982        H  0.38601502  0.73144648  0.92321161     0.32300
H983        H  0.33656360  0.84755825  0.94932641     0.35100
H984        H  0.27580173  0.75323257  0.83130892     0.27700
H985        H  0.18877029  0.75900712  0.91390861     0.40600
H986        H  0.30125260  0.69714350  0.00551764     0.30600
H987        H  0.30167131  0.67171909  0.94345758     0.38300
H988        H  0.29642708  0.84548432  0.90380118     0.30100
H989        H  0.30194259  0.76423374  0.02796091     0.30200
H990        H  0.38766764  0.76116940  0.92448864     0.30400
Zr991      Zr  0.08493804  0.83784457  0.00103706     2.17500
O992        O  0.13065105  0.84504890  0.99673020    -0.51900
O993        O  0.09527936  0.86344795  0.96329789    -0.75100
O994        O  0.11052794  0.80039480  0.99517993    -0.81900
O995        O  0.07705450  0.89829264  0.03856020    -0.83600
O996        O  0.08513855  0.76605231  0.98952435    -0.79300
O997        O  0.10475706  0.86631247  0.03136550    -0.90900
O998        O  0.05954184  0.87431193  0.94201903    -0.76900
O999        O  0.05638948  0.81927905  0.97086300    -0.86400
O1000       O  0.05436494  0.87028774  0.99448913    -0.86100
O1001       O  0.06707641  0.80003767  0.02049423    -0.72800
O1002       O  0.06725232  0.84598595  0.04207798    -0.84900
Zr1003     Zr  0.99020108  0.82643633  0.02484828     2.26400
Zr1004     Zr  0.03723934  0.78199822  0.99036073     2.06300
Zr1005     Zr  0.03593826  0.87828195  0.03499404     2.10000
Zr1006     Zr  0.02601308  0.85229578  0.96433648     1.78800
O1007       O  0.04462898  0.90108522  0.07395866    -0.93700
O1008       O  0.03229336  0.82761592  0.92600573    -0.41600
O1009       O  0.00639325  0.86320512  0.00425842    -0.78200
O1010       O  0.00740147  0.81612181  0.98382356    -0.96900
O1011       O  0.01981608  0.79253637  0.03052226    -0.90200
O1012       O  0.01966810  0.84131273  0.05521073    -0.93000
C1013       C  0.08356029  0.87544705  0.94545699     1.00700
C1014       C  0.09938866  0.88872907  0.03897235     1.13700
C1015       C  0.10791591  0.77652195  0.99244518     1.04400
O1016       O  0.03873025  0.77088190  0.94570055    -0.95200
O1017       O  0.98750512  0.76889449  0.98782575    -0.90900
O1018       O  0.96189170  0.79733418  0.00805930    -0.84100
C1019       C  0.96459825  0.77762373  0.99489237     1.11100
O1020       O  0.09176310  0.80667387  0.07864150    -0.97200
Zr1021     Zr  0.04921263  0.80849639  0.06052263     1.88900
O1022       O  0.97721571  0.79463630  0.05541728    -0.73800
O1023       O  0.03665745  0.73672839  0.99927941    -0.53100
O1024       O  0.06594447  0.76762068  0.07428049    -0.97700
O1025       O  0.04415590  0.82654389  0.10263653    -0.55000
O1026       O  0.01403877  0.78246099  0.07446709    -0.74300
C1027       C  0.99024776  0.78000841  0.06986212     0.98000
O1028       O  0.95041931  0.84401200  0.00867313    -0.63100
O1029       O  0.02369205  0.91714632  0.01314474    -0.57900
O1030       O  0.97108185  0.85426965  0.05545584    -0.94600
O1031       O  0.99790676  0.88729359  0.06009533    -0.93000
O1032       O  0.00913570  0.89222441  0.94832848    -0.93400
O1033       O  0.98464829  0.85154775  0.94354987    -0.92200
C1034       C  0.97769403  0.87500604  0.06604795     1.16900
H1035       H  0.06174504  0.88598442  0.98868900     0.32800
H1036       H  0.99413879  0.81109307  0.97231561     0.43700
H1037       H  0.01281353  0.84417199  0.07189325     0.37200
H1038       H  0.07968526  0.78830702  0.02648665     0.33700
H1039       H  0.01799228  0.81548708  0.92578668     0.25500
H1040       H  0.04061859  0.72871205  0.98284633     0.31400
H1041       H  0.06754692  0.75757362  0.05858796     0.37300
H1042       H  0.00267661  0.90098150  0.96353943     0.31800
H1043       H  0.00491582  0.91663071  0.01260566     0.30600
H1044       H  0.05271401  0.88836014  0.08526083     0.32300
H1045       H  0.05970114  0.83666797  0.10543071     0.31300
H1046       H  0.97223750  0.85283187  0.95754974     0.35300
H1047       H  0.95217453  0.86261805  0.01005196     0.28000
H1048       H  0.13606306  0.83719566  0.98061626     0.32300
H1049       H  0.10288545  0.81399569  0.06539671     0.35100
H1050       H  0.02768686  0.93071150  0.02535741     0.27700
H1051       H  0.93735192  0.83942256  0.02134666     0.40600
H1052       H  0.02104882  0.76621060  0.94146295     0.30600
H1053       H  0.02854184  0.83956064  0.91195527     0.38300
H1054       H  0.04587127  0.81192994  0.11435488     0.30100
H1055       H  0.05187003  0.73356416  0.00990253     0.30200
H1056       H  0.13916459  0.83512939  0.01029496     0.30400
Zr1057     Zr  0.24584615  0.95845966  0.04861637     2.17500
O1058       O  0.24138845  0.95006677  0.00335128    -0.51900
O1059       O  0.20074119  0.95140703  0.05464341    -0.75100
O1060       O  0.24147156  0.91460447  0.03927006    -0.81900
O1061       O  0.26125358  0.02202041  0.03127246    -0.83600
O1062       O  0.26395971  0.89114099  0.06747388    -0.79300
O1063       O  0.23750614  0.98990442  0.01631145    -0.90900
O1064       O  0.19565772  0.94214832  0.09629727    -0.76900
O1065       O  0.24669341  0.93312482  0.08574641    -0.86400
O1066       O  0.22988411  0.98609462  0.08051567    -0.86100
O1067       O  0.28949095  0.94476621  0.05374118    -0.72800
O1068       O  0.27562558  0.99199598  0.05096265    -0.84900
Zr1069     Zr  0.30402240  0.98232031  0.12656207     2.26400
Zr1070     Zr  0.28961509  0.92039013  0.09227856     2.06300
Zr1071     Zr  0.25990022  0.02044951  0.08150160     2.10000
Zr1072     Zr  0.23203111  0.95975765  0.11810066     1.78800
O1073       O  0.28120277  0.06130329  0.08048676    -0.93700
O1074       O  0.22447295  0.91924397  0.13907357    -0.41600
O1075       O  0.26122881  0.99361294  0.11775833    -0.78200
O1076       O  0.27532409  0.94684412  0.12604780    -0.96900
O1077       O  0.31864823  0.95500985  0.09419342    -0.90200
O1078       O  0.30342563  0.00860301  0.08930730    -0.93000
C1079       C  0.18801071  0.94223294  0.07323064     1.00700
C1080       C  0.25146833  0.00915085  0.01207161     1.13700
C1081       C  0.24803080  0.89351662  0.04906848     1.04400
O1082       O  0.27675430  0.88542203  0.11961661    -0.95200
O1083       O  0.32306609  0.91192818  0.12315855    -0.90900
O1084       O  0.33213239  0.94943021  0.14201430    -0.84100
C1085       C  0.33593125  0.92577754  0.13841639     1.11100
O1086       O  0.32730163  0.97005936  0.01292528    -0.97200
Zr1087     Zr  0.31852366  0.98028636  0.05710249     1.88900
O1088       O  0.34401991  0.00413796  0.11965234    -0.73800
O1089       O  0.32062925  0.89510188  0.06942070    -0.53100
O1090       O  0.35776015  0.95720864  0.04938964    -0.97700
O1091       O  0.32160075  0.01946662  0.03265919    -0.55000
O1092       O  0.35437000  0.99971209  0.07811283    -0.74300
C1093       C  0.35892479  0.00724939  0.10067439     0.98000
O1094       O  0.31476076  0.97951706  0.17163607    -0.63100
O1095       O  0.22291164  0.04738962  0.07502936    -0.57900
O1096       O  0.28494914  0.01472321  0.15324123    -0.94600
O1097       O  0.25347102  0.03236706  0.12927723    -0.93000
O1098       O  0.19847736  0.98753462  0.13312169    -0.93400
O1099       O  0.22996330  0.96401530  0.16396137    -0.92200
C1100       C  0.26505069  0.02864246  0.15129573     1.16900
H1101       H  0.21292420  0.99219888  0.07701999     0.32800
H1102       H  0.27639756  0.93772901  0.14195558     0.43700
H1103       H  0.31324538  0.02390713  0.09068007     0.37200
H1104       H  0.29420228  0.93394639  0.03983643     0.33700
H1105       H  0.20649168  0.91989703  0.14441391     0.25500
H1106       H  0.33709057  0.90344786  0.07280301     0.31400
H1107       H  0.35269197  0.93920591  0.04913522     0.37300
H1108       H  0.20484002  0.00483514  0.12967947     0.31800
H1109       H  0.22167305  0.05739671  0.09079107     0.30600
H1110       H  0.28202600  0.06578627  0.06225738     0.32300
H1111       H  0.31063877  0.01699231  0.01761749     0.31300
H1112       H  0.24778215  0.96664221  0.16935036     0.35300
H1113       H  0.29851188  0.97869005  0.18101948     0.28000
H1114       H  0.22476840  0.94160666  0.00128491     0.32300
H1115       H  0.31571713  0.95603847  0.00853824     0.35100
H1116       H  0.22827010  0.05978456  0.06194478     0.27700
H1117       H  0.32251225  0.99591450  0.17626490     0.40600
H1118       H  0.28728290  0.87092575  0.11412241     0.30600
H1119       H  0.22485300  0.90658067  0.12532342     0.38300
H1120       H  0.33909271  0.01947534  0.02585812     0.30100
H1121       H  0.32161692  0.87898443  0.07905817     0.30200
H1122       H  0.25423113  0.93705604  0.99916274     0.30400
Zr1123     Zr  0.19941403  0.02143291  0.79209002     2.17500
O1124       O  0.19985291  0.04314151  0.75101593    -0.51900
O1125       O  0.20674120  0.06618988  0.79716156    -0.75100
O1126       O  0.15779643  0.02129253  0.77210578    -0.81900
O1127       O  0.26467980  0.99413777  0.78161671    -0.83600
O1128       O  0.12858906  0.01069355  0.80160861    -0.79300
O1129       O  0.22961802  0.00787633  0.76027224    -0.90900
O1130       O  0.19367421  0.07483476  0.83677952    -0.76900
O1131       O  0.17197911  0.02791529  0.82736209    -0.86400
O1132       O  0.22835356  0.03130278  0.82590163    -0.86100
O1133       O  0.17597628  0.98262809  0.79857131    -0.72800
O1134       O  0.22647429  0.98626312  0.79850179    -0.84900
Zr1135     Zr  0.20585649  0.96202363  0.87300894     2.26400
Zr1136     Zr  0.15041326  0.98878910  0.83559798     2.06300
Zr1137     Zr  0.25591493  0.99511705  0.83105525     2.10000
Zr1138     Zr  0.19997059  0.03685459  0.86130183     1.78800
O1139       O  0.28954938  0.96361854  0.83455082    -0.93700
O1140       O  0.16069689  0.05561329  0.87691383    -0.41600
O1141       O  0.22642476  0.00081852  0.86390866    -0.78200
O1142       O  0.17763377  0.99792847  0.87047557    -0.96900
O1143       O  0.17776739  0.95305979  0.83916323    -0.90200
O1144       O  0.23387032  0.95544948  0.83778481    -0.93000
C1145       C  0.19789985  0.08128117  0.81374946     1.00700
C1146       C  0.25219413  0.99884571  0.76016790     1.13700
C1147       C  0.13494183  0.01668685  0.77888557     1.04400
O1148       O  0.12154700  0.01474078  0.86033651    -0.95200
O1149       O  0.13335501  0.95919124  0.86709926    -0.90900
O1150       O  0.16640961  0.94850947  0.89258174    -0.84100
C1151       C  0.14285103  0.94773703  0.88653429     1.11100
O1152       O  0.19980596  0.94715203  0.75761673    -0.97200
Zr1153     Zr  0.20452288  0.94784070  0.80348768     1.88900
O1154       O  0.21223414  0.91725882  0.86505485    -0.73800
O1155       O  0.11644190  0.96240647  0.81875926    -0.53100
O1156       O  0.17438951  0.92043673  0.78194860    -0.97700
O1157       O  0.24392437  0.92857761  0.78906781    -0.55000
O1158       O  0.19744642  0.90934294  0.82572889    -0.74300
C1159       C  0.20389092  0.90231236  0.84786676     0.98000
O1160       O  0.21436065  0.94518070  0.91542198    -0.63100
O1161       O  0.29177812  0.02399749  0.82825334    -0.57900
O1162       O  0.23681263  0.97813357  0.90311050    -0.94600
O1163       O  0.26419007  0.00225195  0.87996651    -0.93000
O1164       O  0.23287379  0.06529607  0.87660252    -0.93400
O1165       O  0.20048222  0.03796823  0.90744283    -0.92200
C1166       C  0.25524495  0.99391034  0.90201831     1.16900
H1167       H  0.23862751  0.04613680  0.82289014     0.32800
H1168       H  0.16798271  0.99959381  0.88590455     0.43700
H1169       H  0.24548614  0.94153419  0.84047758     0.37200
H1170       H  0.16534492  0.97823872  0.78435369     0.33700
H1171       H  0.16568287  0.07242883  0.88337683     0.25500
H1172       H  0.10077585  0.97266037  0.82030053     0.31400
H1173       H  0.15872827  0.92143692  0.79223876     0.37300
H1174       H  0.22411097  0.08168930  0.87915294     0.31800
H1175       H  0.28665238  0.03663826  0.81529644     0.30600
H1176       H  0.30128890  0.96780315  0.82051415     0.32300
H1177       H  0.25278029  0.94222339  0.77966864     0.31300
H1178       H  0.19827906  0.05593676  0.91215585     0.35300
H1179       H  0.20183029  0.95332771  0.92674680     0.28000
H1180       H  0.21566037  0.05327265  0.75062519     0.32300
H1181       H  0.19477923  0.96459638  0.75277615     0.35100
H1182       H  0.29148762  0.03337425  0.84444213     0.27700
H1183       H  0.20911566  0.92721826  0.91487079     0.40600
H1184       H  0.10441003  0.00880692  0.85548803     0.30600
H1185       H  0.15052186  0.05944015  0.86155312     0.38300
H1186       H  0.23864390  0.91649115  0.77580936     0.30100
H1187       H  0.11962652  0.96134332  0.80030995     0.30200
H1188       H  0.18614778  0.05592684  0.75183238     0.30400
Zr1189     Zr  0.20802711  0.03940245  0.62182999     2.17500
O1190       O  0.19044564  0.02713902  0.66287241    -0.51900
O1191       O  0.16889287  0.01724566  0.61044165    -0.75100
O1192       O  0.18265615  0.07397273  0.63820524    -0.81900
O1193       O  0.26013032  0.99121622  0.62883421    -0.83600
O1194       O  0.19019028  0.11110315  0.61762395    -0.79300
O1195       O  0.23027838  0.01213814  0.65195388    -0.90900
O1196       O  0.16104269  0.02250393  0.56843141    -0.76900
O1197       O  0.19567220  0.06833365  0.58958755    -0.86400
O1198       O  0.21106640  0.01412028  0.58439873    -0.86100
O1199       O  0.23703184  0.07479756  0.62391244    -0.72800
O1200       O  0.25110293  0.02870021  0.61532563    -0.84900
Zr1201     Zr  0.27096209  0.06440210  0.54821256     2.26400
Zr1202     Zr  0.22580674  0.10242599  0.58941947     2.06300
Zr1203     Zr  0.25487246  0.00209547  0.58002463     2.10000
Zr1204     Zr  0.19771566  0.04415639  0.55215159     1.78800
O1205       O  0.29353071  0.97807828  0.57221196    -0.93700
O1206       O  0.16309721  0.07469393  0.54939680    -0.41600
O1207       O  0.24059966  0.03179877  0.54988040    -0.78200
O1208       O  0.22751425  0.07902605  0.55046965    -0.96900
O1209       O  0.26877811  0.08897582  0.58558247    -0.90200
O1210       O  0.28487344  0.03618112  0.58104444    -0.93000
C1211       C  0.15535922  0.01404400  0.59040161     1.00700
C1212       C  0.24931885  0.99699898  0.65081388     1.13700
C1213       C  0.17780714  0.09731427  0.63348199     1.04400
O1214       O  0.20073011  0.12893860  0.56087241    -0.95200
O1215       O  0.26022720  0.12897842  0.57244968    -0.90900
O1216       O  0.27378802  0.10832308  0.53779046    -0.84100
C1217       C  0.27375906  0.12753504  0.55218803     1.11100
O1218       O  0.27934970  0.06082401  0.66475485    -0.97200
Zr1219     Zr  0.28082808  0.06182746  0.61866082     1.88900
O1220       O  0.31565464  0.06809759  0.55753012    -0.73800
O1221       O  0.23104460  0.13815864  0.61788990    -0.53100
O1222       O  0.28894454  0.10314410  0.63716344    -0.97700
O1223       O  0.31446943  0.03362242  0.63349623    -0.55000
O1224       O  0.31938864  0.07686067  0.59937367    -0.74300
C1225       C  0.32816668  0.07566639  0.57685702     0.98000
O1226       O  0.28133844  0.07133270  0.50358111    -0.63100
O1227       O  0.23686694  0.95973748  0.57893305    -0.57900
O1228       O  0.27768564  0.03348557  0.51551347    -0.94600
O1229       O  0.25242590  0.00220508  0.52982200    -0.93000
O1230       O  0.19020807  0.00826247  0.52433105    -0.93400
O1231       O  0.19244400  0.05362176  0.50710958    -0.92200
C1232       C  0.26263906  0.01525005  0.51085242     1.16900
H1233       H  0.20138501  0.99864203  0.58458618     0.32800
H1234       H  0.22384337  0.09006243  0.53628174     0.43700
H1235       H  0.30183835  0.02961588  0.57881866     0.37200
H1236       H  0.23501604  0.08358878  0.63977855     0.33700
H1237       H  0.16955242  0.08853387  0.53845339     0.25500
H1238       H  0.24915428  0.13768967  0.62292326     0.31400
H1239       H  0.30672374  0.10228736  0.64320893     0.37300
H1240       H  0.20572376  0.00649801  0.51396103     0.31800
H1241       H  0.23953134  0.95407879  0.56127398     0.30600
H1242       H  0.29990937  0.98476078  0.55584390     0.32300
H1243       H  0.30574243  0.01796009  0.63892112     0.31300
H1244       H  0.19880606  0.07106848  0.50465368     0.35300
H1245       H  0.27105409  0.08583585  0.49742010     0.28000
H1246       H  0.17182150  0.02693729  0.66036726     0.32300
H1247       H  0.26135117  0.05750114  0.66894309     0.35100
H1248       H  0.24872352  0.94926937  0.58915602     0.27700
H1249       H  0.29912143  0.07725464  0.50336738     0.40600
H1250       H  0.21328500  0.13971744  0.55200263     0.30600
H1251       H  0.14993230  0.06627173  0.53904584     0.38300
H1252       H  0.32113812  0.04119208  0.64928462     0.30100
H1253       H  0.22948778  0.15332244  0.60686449     0.30200
H1254       H  0.19355044  0.04166732  0.67422686     0.30400
Zr1255     Zr  0.31464648  0.05503315  0.37365940     2.17500
O1256       O  0.31681586  0.07321476  0.41610968    -0.51900
O1257       O  0.31584189  0.10135367  0.37228417    -0.75100
O1258       O  0.35661656  0.05120985  0.39140992    -0.81900
O1259       O  0.24893991  0.02904747  0.37903262    -0.83600
O1260       O  0.38121091  0.05736592  0.35790132    -0.79300
O1261       O  0.28303540  0.04034554  0.40299831    -0.90900
O1262       O  0.33363805  0.11132962  0.33475805    -0.76900
O1263       O  0.34244475  0.06454497  0.33982574    -0.86400
O1264       O  0.28713198  0.07151429  0.34120521    -0.86100
O1265       O  0.33496397  0.01491772  0.36481024    -0.72800
O1266       O  0.28643911  0.02197997  0.36134272    -0.84900
Zr1267     Zr  0.30820674  0.00970476  0.28547314     2.26400
Zr1268     Zr  0.36254157  0.02537384  0.33048837     2.06300
Zr1269     Zr  0.25812277  0.03788193  0.33030420     2.10000
Zr1270     Zr  0.31610360  0.08034553  0.30705268     1.78800
O1271       O  0.21875450  0.01411168  0.32671756    -0.93700
O1272       O  0.35165582  0.10032058  0.28528756    -0.41600
O1273       O  0.28706424  0.04787692  0.29687939    -0.78200
O1274       O  0.33793132  0.04234529  0.29573494    -0.96900
O1275       O  0.33435876  0.99211656  0.31799830    -0.90200
O1276       O  0.27858111  0.99920723  0.31837811    -0.93000
C1277       C  0.32630256  0.11713868  0.35692489     1.00700
C1278       C  0.26067328  0.03133998  0.40126598     1.13700
C1279       C  0.37552617  0.06199231  0.38098151     1.04400
O1280       O  0.40651305  0.03522532  0.32043034    -0.95200
O1281       O  0.37911665  0.01022708  0.29113487    -0.90900
O1282       O  0.34754058  0.99486250  0.26634000    -0.84100
C1283       C  0.37098829  0.99959574  0.27099443     1.11100
O1284       O  0.30018533  0.96870365  0.39468546    -0.97200
Zr1285     Zr  0.30546053  0.98260771  0.35098937     1.88900
O1286       O  0.29309043  0.96744461  0.28198211    -0.73800
O1287       O  0.38422261  0.99225433  0.35448651    -0.53100
O1288       O  0.33947456  0.95545086  0.36680172    -0.97700
O1289       O  0.26704757  0.95876647  0.36061017    -0.55000
O1290       O  0.30712097  0.95020762  0.31855517    -0.74300
C1291       C  0.30111259  0.94879422  0.29497665     0.98000
O1292       O  0.31067147  0.01843093  0.24000659    -0.63100
O1293       O  0.22926490  0.07341982  0.33630011    -0.57900
O1294       O  0.27102333  0.01301892  0.25998140    -0.94600
O1295       O  0.24926094  0.04318700  0.28120211    -0.93000
O1296       O  0.28404959  0.11353234  0.30453918    -0.93400
O1297       O  0.30939867  0.09055374  0.26245794    -0.92200
C1298       C  0.25553827  0.03145333  0.25994817     1.16900
H1299       H  0.27811313  0.08643156  0.34667764     0.32800
H1300       H  0.34858384  0.04609747  0.28131620     0.43700
H1301       H  0.26582540  0.98722337  0.31312757     0.37200
H1302       H  0.34428549  0.00856616  0.37930496     0.33700
H1303       H  0.34826006  0.11873117  0.28628484     0.25500
H1304       H  0.39531689  0.98390061  0.34192012     0.31400
H1305       H  0.34597495  0.94656855  0.35167841     0.37300
H1306       H  0.26997417  0.10594552  0.29472439     0.31800
H1307       H  0.21211453  0.06580595  0.33601098     0.30600
H1308       H  0.21678954  0.00565953  0.34340481     0.32300
H1309       H  0.25986725  0.95396052  0.34396581     0.31300
H1310       H  0.31923094  0.07762100  0.25314195     0.35300
H1311       H  0.32593113  0.02907421  0.23760843     0.28000
H1312       H  0.30000157  0.08084062  0.41959924     0.32300
H1313       H  0.30913695  0.98165174  0.40480581     0.35100
H1314       H  0.23180004  0.07844678  0.35417829     0.27700
H1315       H  0.31468488  0.00211175  0.23177791     0.40600
H1316       H  0.40571583  0.05161306  0.31124554     0.30600
H1317       H  0.36640346  0.09748389  0.29663294     0.38300
H1318       H  0.25505426  0.97151985  0.36728357     0.30100
H1319       H  0.39607453  0.00147260  0.36571119     0.30200
H1320       H  0.31853725  0.05890631  0.42820494     0.30400
Zr1321     Zr  0.03899943  0.93073035  0.67108945     2.17500
O1322       O  0.01134373  0.95479259  0.64264188    -0.51900
O1323       O  0.05972306  0.96414298  0.69500758    -0.75100
O1324       O  0.00723158  0.95487466  0.69013242    -0.81900
O1325       O  0.08513678  0.92265909  0.61655537    -0.83600
O1326       O  0.00463082  0.93604417  0.72879120    -0.79300
O1327       O  0.06277814  0.95197654  0.63806085    -0.90900
O1328       O  0.08768344  0.94384937  0.72102773    -0.76900
O1329       O  0.04825260  0.91644039  0.71328253    -0.86400
O1330       O  0.08086666  0.91448975  0.66939870    -0.86100
O1331       O  0.00630197  0.90096532  0.68303983    -0.72800
O1332       O  0.03549288  0.89873615  0.63975616    -0.84900
Zr1333     Zr  0.05862140  0.83765742  0.68971190     2.26400
Zr1334     Zr  0.01649546  0.88636068  0.72530557     2.06300
Zr1335     Zr  0.07782852  0.88251991  0.63788940     2.10000
Zr1336     Zr  0.08996327  0.89963725  0.71095729     1.78800
O1337       O  0.06645195  0.87748348  0.59344451    -0.93700
O1338       O  0.09731625  0.90140988  0.75651579    -0.41600
O1339       O  0.09039889  0.86763163  0.67901867    -0.78200
O1340       O  0.05882678  0.86895409  0.72263669    -0.96900
O1341       O  0.01609234  0.85332636  0.69418692    -0.90200
O1342       O  0.04675897  0.85169627  0.64873473    -0.93000
C1343       C  0.07623170  0.96366634  0.71290053     1.00700
C1344       C  0.07864836  0.94564859  0.62091581     1.13700
C1345       C  0.00170916  0.95615448  0.71339425     1.04400
O1346       O  0.02323556  0.89247829  0.77052318    -0.95200
O1347       O  0.01492834  0.83828465  0.74277589    -0.90900
O1348       O  0.04348225  0.81253471  0.72294940    -0.84100
C1349       C  0.02647009  0.81587793  0.73948681     1.11100
O1350       O  0.97582593  0.89239290  0.62694209    -0.97200
Zr1351     Zr  0.00496693  0.86735274  0.65285644     1.88900
O1352       O  0.03377695  0.80288357  0.67383070    -0.73800
O1353       O  0.97129944  0.88459948  0.73460717    -0.53100
O1354       O  0.96055829  0.86594034  0.66542328    -0.97700
O1355       O  0.00241970  0.85188078  0.60938886    -0.55000
O1356       O  0.99891917  0.82164599  0.65640506    -0.74300
C1357       C  0.01202052  0.80213904  0.66308953     0.98000
O1358       O  0.09433194  0.81805830  0.71185121    -0.63100
O1359       O  0.12317514  0.88406454  0.62922468    -0.57900
O1360       O  0.08402525  0.81406226  0.66029095    -0.94600
O1361       O  0.09319098  0.84075768  0.62755477    -0.93000
O1362       O  0.13036544  0.91761851  0.69753360    -0.93400
O1363       O  0.12243562  0.87144138  0.72815869    -0.92200
C1364       C  0.09307657  0.81893441  0.63833287     1.16900
H1365       H  0.09325201  0.92725115  0.66512483     0.32800
H1366       H  0.06351816  0.86119729  0.73861001     0.43700
H1367       H  0.04654187  0.83796635  0.63679397     0.37200
H1368       H  0.98995551  0.90927809  0.68313473     0.33700
H1369       H  0.10958294  0.91539943  0.75883685     0.25500
H1370       H  0.96293947  0.88412841  0.71780062     0.31400
H1371       H  0.96028865  0.85445695  0.68030249     0.37300
H1372       H  0.13834557  0.90432986  0.68707112     0.31800
H1373       H  0.12447110  0.89015421  0.61148437     0.30600
H1374       H  0.05734807  0.86111787  0.59276145     0.32300
H1375       H  0.98458812  0.84638526  0.60729619     0.31300
H1376       H  0.13143629  0.86472032  0.71318958     0.35300
H1377       H  0.09245083  0.82297012  0.72982816     0.28000
H1378       H  0.01851403  0.97209072  0.64196575     0.32300
H1379       H  0.98568239  0.90751538  0.62187577     0.35100
H1380       H  0.12950596  0.89831761  0.63953922     0.27700
H1381       H  0.09088129  0.79965237  0.71159754     0.40600
H1382       H  0.03864696  0.88247848  0.77455203     0.30600
H1383       H  0.08121216  0.90796595  0.76353535     0.38300
H1384       H  0.01226501  0.83591198  0.60906493     0.30100
H1385       H  0.96864074  0.86747066  0.74181567     0.30200
H1386       H  0.01437052  0.94777365  0.62555106     0.30400
Zr1387     Zr  0.97135824  0.58456766  0.74748005     2.17500
O1388       O  0.97895972  0.53927714  0.75055539    -0.51900
O1389       O  0.93757907  0.59059218  0.77867755    -0.75100
O1390       O  0.99124922  0.57236843  0.78618937    -0.81900
O1391       O  0.95314334  0.56933253  0.69289870    -0.83600
O1392       O  0.03029295  0.58807821  0.78241467    -0.79300
O1393       O  0.93681506  0.56109815  0.73008486    -0.90900
O1394       O  0.92379600  0.63101557  0.77478061    -0.76900
O1395       O  0.97684756  0.62426215  0.76820436    -0.86400
O1396       O  0.94491900  0.61323762  0.72416783    -0.86100
O1397       O  0.01496588  0.59604141  0.74084683    -0.72800
O1398       O  0.98742098  0.58419068  0.70435875    -0.84900
Zr1399     Zr  0.00849016  0.66524318  0.69854475     2.26400
Zr1400     Zr  0.02144491  0.63484371  0.76457616     2.06300
Zr1401     Zr  0.96070401  0.61313173  0.68185089     2.10000
Zr1402     Zr  0.94974739  0.65214973  0.74427956     1.78800
O1403       O  0.95622019  0.59295068  0.64073115    -0.93700
O1404       O  0.95442261  0.67868893  0.78174132    -0.41600
O1405       O  0.96418660  0.65400325  0.70110651    -0.78200
O1406       O  0.99271387  0.66235860  0.74118045    -0.96900
O1407       O  0.03668468  0.63727253  0.72112278    -0.90200
O1408       O  0.00411262  0.62570219  0.67769432    -0.93000
C1409       C  0.92301895  0.60908221  0.78491561     1.00700
C1410       C  0.93404906  0.56313233  0.70630231     1.13700
C1411       C  0.01496764  0.56846184  0.78618795     1.04400
O1412       O  0.01471754  0.64140498  0.80970374    -0.95200
O1413       O  0.02710131  0.68529355  0.76559369    -0.90900
O1414       O  0.02028426  0.70079732  0.72562388    -0.84100
C1415       C  0.02453802  0.70461762  0.74926689     1.11100
O1416       O  0.04715955  0.55491521  0.70581898    -0.97200
Zr1417     Zr  0.03080140  0.59767288  0.69971446     1.88900
O1418       O  0.04626247  0.66055822  0.67210735    -0.73800
O1419       O  0.06649835  0.63893144  0.77396032    -0.53100
O1420       O  0.07355264  0.59563590  0.71726082    -0.97700
O1421       O  0.02654672  0.56859415  0.66427417    -0.55000
O1422       O  0.05412240  0.61889035  0.66704124    -0.74300
C1423       C  0.05718375  0.64206842  0.66081477     0.98000
O1424       O  0.01504183  0.70570963  0.67671802    -0.63100
O1425       O  0.91613597  0.62295231  0.67400211    -0.57900
O1426       O  0.97984177  0.67630723  0.66389545    -0.94600
O1427       O  0.97043075  0.63880084  0.64591396    -0.93000
O1428       O  0.90553789  0.65705249  0.73138272    -0.93400
O1429       O  0.93589641  0.69494569  0.73410230    -0.92200
C1430       C  0.97139498  0.66280405  0.64563417     1.16900
H1431       H  0.92708323  0.60904588  0.72487953     0.32800
H1432       H  0.98900655  0.67831096  0.74845636     0.43700
H1433       H  0.00942718  0.62629319  0.66016424     0.37200
H1434       H  0.02522320  0.58112991  0.74323310     0.33700
H1435       H  0.94088348  0.67317206  0.79349221     0.25500
H1436       H  0.07367842  0.64751769  0.75887173     0.31400
H1437       H  0.08486945  0.59530052  0.70231088     0.37300
H1438       H  0.89666554  0.66364047  0.74650882     0.31800
H1439       H  0.91250431  0.63758123  0.68502898     0.30600
H1440       H  0.93867867  0.59671848  0.63510474     0.32300
H1441       H  0.04226125  0.57080363  0.65425882     0.31300
H1442       H  0.93878408  0.69672419  0.71564233     0.35300
H1443       H  0.00289465  0.71787473  0.68416122     0.28000
H1444       H  0.97665176  0.53284587  0.73314633     0.32300
H1445       H  0.03186015  0.54444463  0.70878811     0.35100
H1446       H  0.91569390  0.63014695  0.65662830     0.27700
H1447       H  0.03207211  0.71188920  0.68164312     0.40600
H1448       H  0.00266150  0.62794616  0.81478340     0.30600
H1449       H  0.97034988  0.67292298  0.78998923     0.38300
H1450       H  0.01299558  0.57605955  0.65355213     0.30100
H1451       H  0.06730970  0.65180604  0.78749670     0.30200
H1452       H  0.96447784  0.53259012  0.76041784     0.30400
Zr1453     Zr  0.97965696  0.43060775  0.82089691     2.17500
O1454       O  0.00126883  0.45709839  0.85229744    -0.51900
O1455       O  0.96028751  0.46376700  0.79442611    -0.75100
O1456       O  0.01810479  0.44601424  0.80382217    -0.81900
O1457       O  0.93111609  0.42379159  0.87244923    -0.83600
O1458       O  0.00992679  0.43588669  0.76395540    -0.79300
O1459       O  0.95727932  0.45243077  0.85394927    -0.90900
O1460       O  0.92774438  0.44564834  0.77278437    -0.76900
O1461       O  0.96895675  0.41706167  0.77889241    -0.86400
O1462       O  0.93717080  0.41552883  0.82177170    -0.86100
O1463       O  0.01094513  0.39891584  0.80919244    -0.72800
O1464       O  0.98019832  0.39791311  0.85214465    -0.84900
Zr1465     Zr  0.95622815  0.33740621  0.80319997     2.26400
Zr1466     Zr  0.99935037  0.38562409  0.76692905     2.06300
Zr1467     Zr  0.93742630  0.38300338  0.85329596     2.10000
Zr1468     Zr  0.92692676  0.40095969  0.78074364     1.78800
O1469       O  0.94596988  0.37970845  0.89855107    -0.93700
O1470       O  0.92381947  0.40585144  0.73485405    -0.41600
O1471       O  0.92511809  0.36837871  0.81236896    -0.78200
O1472       O  0.95678133  0.36886210  0.76992696    -0.96900
O1473       O  0.99889260  0.35250028  0.79868888    -0.90200
O1474       O  0.96795835  0.35130549  0.84404417    -0.93000
C1475       C  0.94162392  0.46450154  0.77874436     1.00700
C1476       C  0.93952062  0.44636291  0.86928221     1.13700
C1477       C  0.01649197  0.45318914  0.78115450     1.04400
O1478       O  0.99096629  0.39329195  0.72212189    -0.95200
O1479       O  0.99836735  0.33824285  0.74828595    -0.90900
O1480       O  0.97051546  0.31280553  0.76963602    -0.84100
C1481       C  0.98640078  0.31614744  0.75202065     1.11100
O1482       O  0.03502515  0.39237645  0.86854581    -0.97200
Zr1483     Zr  0.01013868  0.36603705  0.84009673     1.88900
O1484       O  0.98044069  0.30289380  0.82128130    -0.73800
O1485       O  0.04430000  0.38242699  0.75690772    -0.53100
O1486       O  0.05438866  0.36341165  0.82709495    -0.97700
O1487       O  0.01487096  0.34945506  0.88316598    -0.55000
O1488       O  0.01579902  0.32086098  0.83806358    -0.74300
C1489       C  0.00204732  0.30178782  0.83233135     0.98000
O1490       O  0.92090162  0.31652179  0.78189645    -0.63100
O1491       O  0.89175897  0.38739989  0.85904977    -0.57900
O1492       O  0.92899549  0.31465749  0.83209676    -0.94600
O1493       O  0.92063602  0.34160091  0.86442820    -0.93000
O1494       O  0.88545283  0.41452086  0.79584655    -0.93400
O1495       O  0.89244336  0.37689859  0.76181098    -0.92200
C1496       C  0.91980658  0.31977226  0.85390240     1.16900
H1497       H  0.92519838  0.42882181  0.82556200     0.32800
H1498       H  0.95189132  0.36136320  0.75400635     0.43700
H1499       H  0.96758794  0.33777782  0.85637310     0.37200
H1500       H  0.02834521  0.40460044  0.80898300     0.33700
H1501       H  0.90830785  0.41611736  0.73200953     0.25500
H1502       H  0.04588830  0.36627756  0.74763154     0.31400
H1503       H  0.06331795  0.35592496  0.84189371     0.37300
H1504       H  0.88008110  0.42798160  0.78384319     0.31800
H1505       H  0.88409318  0.37682163  0.84563806     0.30600
H1506       H  0.96468577  0.37845500  0.89982661     0.32300
H1507       H  0.03188637  0.34146674  0.88349658     0.31300
H1508       H  0.90052797  0.36120415  0.75563023     0.35300
H1509       H  0.92256944  0.32097071  0.76372154     0.28000
H1510       H  0.01883724  0.46024887  0.84654426     0.32300
H1511       H  0.03380854  0.40960473  0.86117671     0.35100
H1512       H  0.88796577  0.37833169  0.87507714     0.27700
H1513       H  0.92474636  0.29818637  0.78281078     0.40600
H1514       H  0.99396997  0.37679078  0.71387626     0.30600
H1515       H  0.93793771  0.41733152  0.73026925     0.38300
H1516       H  0.00290113  0.33509993  0.88460555     0.30100
H1517       H  0.04709845  0.39567371  0.74384857     0.30200
H1518       H  0.00347305  0.44602689  0.86736778     0.30400
Zr1519     Zr  0.05992154  0.10246502  0.74717654     2.17500
O1520       O  0.07106642  0.05808611  0.74266142    -0.51900
O1521       O  0.08402209  0.11083056  0.70826910    -0.75100
O1522       O  0.03254600  0.07002817  0.72891176    -0.81900
O1523       O  0.09387607  0.10401731  0.80212933    -0.83600
O1524       O  0.99385270  0.08893231  0.72283009    -0.79300
O1525       O  0.10245788  0.09376998  0.76283503    -0.90900
O1526       O  0.09541576  0.15194826  0.70873077    -0.76900
O1527       O  0.04172211  0.13556655  0.72195652    -0.86400
O1528       O  0.08316681  0.13914279  0.76043525    -0.86100
O1529       O  0.01662657  0.10633688  0.76120298    -0.72800
O1530       O  0.05331582  0.10730389  0.79243919    -0.84900
Zr1531     Zr  0.01150574  0.17973282  0.79254546     2.26400
Zr1532     Zr  0.99736305  0.13807693  0.73423997     2.06300
Zr1533     Zr  0.07506844  0.14519560  0.80470480     2.10000
Zr1534     Zr  0.06527917  0.17185634  0.73636236     1.78800
O1535       O  0.08476148  0.13401275  0.84854355    -0.93700
O1536       O  0.05281901  0.18628061  0.69413893    -0.41600
O1537       O  0.05616253  0.17882957  0.78055616    -0.78200
O1538       O  0.02277231  0.17334321  0.74886455    -0.96900
O1539       O  0.98921880  0.14264823  0.77934333    -0.90200
O1540       O  0.03129566  0.14648597  0.81678963    -0.93000
C1541       C  0.09746027  0.12954584  0.70014738     1.00700
C1542       C  0.11003775  0.09954431  0.78497136     1.13700
C1543       C  0.00871519  0.06841744  0.72380924     1.04400
O1544       O  0.99391575  0.13981960  0.68824654    -0.95200
O1545       O  0.98358750  0.18632901  0.72852688    -0.90900
O1546       O  0.98107976  0.20363022  0.76773298    -0.84100
C1547       C  0.98107584  0.20627484  0.74365264     1.11100
O1548       O  0.01884333  0.06619287  0.81496063    -0.97200
Zr1549     Zr  0.00941294  0.11025153  0.80475131     1.88900
O1550       O  0.97487518  0.17087096  0.81965162    -0.73800
O1551       O  0.95143882  0.13302365  0.73335689    -0.53100
O1552       O  0.97262842  0.08349565  0.79711541    -0.97700
O1553       O  0.01739818  0.10474857  0.85008650    -0.55000
O1554       O  0.97548078  0.12898514  0.82841746    -0.74300
C1555       C  0.96634352  0.15118983  0.83124132     0.98000
O1556       O  0.01046255  0.22563837  0.79602435    -0.63100
O1557       O  0.11680725  0.16489300  0.80703441    -0.57900
O1558       O  0.02700969  0.19359579  0.83353481    -0.94600
O1559       O  0.06389962  0.18750608  0.81675198    -0.93000
O1560       O  0.10602965  0.19067219  0.74722410    -0.93400
O1561       O  0.06546313  0.21750075  0.72980915    -0.92200
C1562       C  0.05072440  0.19079334  0.83650617     1.16900
H1563       H  0.10110442  0.13889354  0.75674174     0.32800
H1564       H  0.02234901  0.18945840  0.74052015     0.43700
H1565       H  0.02936713  0.14786460  0.83487042     0.37200
H1566       H  0.00827903  0.09036973  0.76208103     0.33700
H1567       H  0.05501746  0.17134264  0.68310684     0.25500
H1568       H  0.94680245  0.12865962  0.75101892     0.31400
H1569       H  0.96215601  0.09319234  0.78483358     0.37300
H1570       H  0.10494305  0.19410383  0.76561079     0.31800
H1571       H  0.12439744  0.15920925  0.82326365     0.30600
H1572       H  0.06823118  0.12942985  0.85614455     0.32300
H1573       H  0.03429013  0.09661937  0.85136438     0.31300
H1574       H  0.06817942  0.22463353  0.74691129     0.35300
H1575       H  0.00117072  0.22924041  0.81190177     0.28000
H1576       H  0.07640141  0.05288736  0.75990479     0.32300
H1577       H  0.03757930  0.06480337  0.81436575     0.35100
H1578       H  0.12710352  0.15695259  0.79360954     0.27700
H1579       H  0.02824737  0.23050242  0.79944530     0.40600
H1580       H  0.99908373  0.15725979  0.68367299     0.30600
H1581       H  0.03422071  0.18870532  0.69507261     0.38300
H1582       H  0.00526206  0.09160970  0.85579363     0.30100
H1583       H  0.94473093  0.15036073  0.73075758     0.30200
H1584       H  0.08681447  0.05799147  0.73244022     0.30400
Zr1585     Zr  0.49683371  0.83913419  0.29945354     2.17500
O1586       O  0.51639819  0.79855597  0.30959820    -0.51900
O1587       O  0.52766004  0.85117574  0.33246796    -0.75100
O1588       O  0.52510304  0.81368866  0.27359034    -0.81900
O1589       O  0.43788919  0.82630509  0.31073733    -0.83600
O1590       O  0.52592332  0.83346465  0.23521010    -0.79300
O1591       O  0.47269214  0.81677750  0.33118869    -0.90900
O1592       O  0.51834858  0.89055730  0.34555585    -0.76900
O1593       O  0.51786630  0.87770794  0.28895572    -0.86400
O1594       O  0.47367333  0.86993710  0.32307171    -0.86100
O1595       O  0.48747971  0.84650815  0.25578911    -0.72800
O1596       O  0.45329215  0.83803361  0.28333532    -0.84900
Zr1597     Zr  0.44796131  0.91529189  0.25114602     2.26400
Zr1598     Zr  0.51307466  0.88200422  0.24318893     2.06300
Zr1599     Zr  0.43157420  0.87087344  0.30613172     2.10000
Zr1600     Zr  0.49325375  0.90841497  0.31257210     1.78800
O1601       O  0.39233087  0.85699123  0.32614656    -0.93700
O1602       O  0.53399558  0.93034287  0.31146351    -0.41600
O1603       O  0.45022997  0.91098720  0.29683142    -0.78200
O1604       O  0.49016903  0.91159684  0.26874185    -0.96900
O1605       O  0.46977679  0.88387583  0.22701200    -0.90200
O1606       O  0.42594047  0.87743721  0.26120931    -0.93000
C1607       C  0.53054691  0.86988387  0.34768653     1.00700
C1608       C  0.44869876  0.81851624  0.33078322     1.13700
C1609       C  0.52685057  0.81244695  0.24946520     1.04400
O1610       O  0.55798271  0.88602209  0.25323721    -0.95200
O1611       O  0.51450673  0.93194243  0.23267470    -0.90900
O1612       O  0.47659387  0.95037226  0.24339152    -0.84100
C1613       C  0.49978429  0.95234353  0.23624720     1.11100
O1614       O  0.43495894  0.80935012  0.21381068    -0.97200
Zr1615     Zr  0.44689411  0.84632179  0.23853092     1.88900
O1616       O  0.43512333  0.90600130  0.20797548    -0.73800
O1617       O  0.52740200  0.88330826  0.19936398    -0.53100
O1618       O  0.47370038  0.83188387  0.20375303    -0.97700
O1619       O  0.41598842  0.81562322  0.25421210    -0.55000
O1620       O  0.41680288  0.86814429  0.21146543    -0.74300
C1621       C  0.41832725  0.89002483  0.20123925     0.98000
O1622       O  0.43153261  0.95351842  0.23077366    -0.63100
O1623       O  0.43241666  0.88899178  0.34856920    -0.57900
O1624       O  0.40359565  0.92267634  0.26483918    -0.94600
O1625       O  0.39396822  0.89179876  0.29314202    -0.93000
O1626       O  0.47414878  0.92326041  0.35187887    -0.93400
O1627       O  0.48949239  0.95432936  0.31368066    -0.92200
C1628       C  0.38763651  0.90984777  0.27830865     1.16900
H1629       H  0.47421107  0.86656445  0.34107656     0.32800
H1630       H  0.49946655  0.92653465  0.27158253     0.43700
H1631       H  0.40877769  0.87614735  0.25508797     0.37200
H1632       H  0.48759349  0.83026039  0.24771282     0.33700
H1633       H  0.54693888  0.91694943  0.31402266     0.25500
H1634       H  0.51159162  0.88312104  0.18921346     0.31400
H1635       H  0.47577730  0.84688808  0.19260801     0.37300
H1636       H  0.47881103  0.91063570  0.36504744     0.31800
H1637       H  0.41990542  0.90299220  0.34796162     0.30600
H1638       H  0.38647344  0.87099437  0.33706540     0.32300
H1639       H  0.40565700  0.82495984  0.26672888     0.31300
H1640       H  0.47117101  0.95777720  0.31120567     0.35300
H1641       H  0.44205665  0.95703794  0.21564616     0.28000
H1642       H  0.50233802  0.78625358  0.30949143     0.32300
H1643       H  0.42505019  0.81619601  0.19932581     0.35100
H1644       H  0.42481359  0.87618171  0.35997711     0.27700
H1645       H  0.41506255  0.94853574  0.22338679     0.40600
H1646       H  0.56613401  0.87171645  0.24433822     0.30600
H1647       H  0.53639768  0.93585820  0.29367766     0.38300
H1648       H  0.42565520  0.80304443  0.26436172     0.30100
H1649       H  0.53427341  0.90058657  0.19695127     0.30200
H1650       H  0.52128705  0.79992666  0.32765718     0.30400
Zr1651     Zr  0.56182706  0.68151709  0.28988207     2.17500
O1652       O  0.59499536  0.70816373  0.27154557    -0.51900
O1653       O  0.53262558  0.71462472  0.30338222    -0.75100
O1654       O  0.55154221  0.69729291  0.24939473    -0.81900
O1655       O  0.60479672  0.67883322  0.34678238    -0.83600
O1656       O  0.51226253  0.68132718  0.24685833    -0.79300
O1657       O  0.58896694  0.70585457  0.31681952    -0.90900
O1658       O  0.50673427  0.69542920  0.33210871    -0.76900
O1659       O  0.51915137  0.66562148  0.29111229    -0.86400
O1660       O  0.55472544  0.66758447  0.33216674    -0.86100
O1661       O  0.55889634  0.64891843  0.25805773    -0.72800
O1662       O  0.59476823  0.65155041  0.29753577    -0.84900
Zr1663     Zr  0.54521225  0.58839543  0.31198897     2.26400
Zr1664     Zr  0.51631500  0.63244660  0.26034824     2.06300
Zr1665     Zr  0.58736464  0.63731826  0.34000083     2.10000
Zr1666     Zr  0.51311114  0.65062107  0.33316899     1.78800
O1667       O  0.63315587  0.63645326  0.34612300    -0.93700
O1668       O  0.46852573  0.65494993  0.32149342    -0.41600
O1669       O  0.54552708  0.62036592  0.34327729    -0.78200
O1670       O  0.51097997  0.61729751  0.30313899    -0.96900
O1671       O  0.54940376  0.60234195  0.26906714    -0.90200
O1672       O  0.58699619  0.60453263  0.30920762    -0.93000
C1673       C  0.51461745  0.71469407  0.31971954     1.00700
C1674       C  0.60155659  0.70081682  0.33693306     1.13700
C1675       C  0.52859204  0.70029381  0.24345565     1.04400
O1676       O  0.47119025  0.63561183  0.25081192    -0.95200
O1677       O  0.49865721  0.58484170  0.26068249    -0.90900
O1678       O  0.51610767  0.56141087  0.29278180    -0.84100
C1679       C  0.50116918  0.56335245  0.27402723     1.11100
O1680       O  0.61532032  0.64994069  0.24238048    -0.97200
Zr1681     Zr  0.59127978  0.61876323  0.26671750     1.88900
O1682       O  0.56732476  0.55426156  0.29093739    -0.73800
O1683       O  0.52280711  0.62545981  0.21527882    -0.53100
O1684       O  0.59213839  0.60946325  0.22157762    -0.97700
O1685       O  0.63539624  0.60815057  0.27598521    -0.55000
O1686       O  0.59225105  0.57361905  0.26151050    -0.74300
C1687       C  0.58278852  0.55403238  0.27226322     0.98000
O1688       O  0.51636768  0.56625679  0.34060302    -0.63100
O1689       O  0.57880457  0.64344949  0.38495964    -0.57900
O1690       O  0.56849370  0.56950104  0.34643887    -0.94600
O1691       O  0.59706300  0.59775757  0.36132165    -0.93000
O1692       O  0.51186031  0.66461294  0.37709406    -0.93400
O1693       O  0.48713036  0.62420007  0.36077829    -0.92200
C1694       C  0.58721636  0.57561359  0.36058539     1.16900
H1695       H  0.55553655  0.68136921  0.34406159     0.32800
H1696       H  0.49484943  0.60878858  0.30480003     0.43700
H1697       H  0.59966421  0.59172496  0.31272299     0.37200
H1698       H  0.56195683  0.65506021  0.24106066     0.33700
H1699       H  0.46066199  0.66384157  0.33596425     0.25500
H1700       H  0.52437181  0.60685071  0.21374595     0.31400
H1701       H  0.57442319  0.60489468  0.21735308     0.37300
H1702       H  0.52364840  0.67915413  0.37799109     0.31800
H1703       H  0.58478456  0.66075985  0.38875844     0.30600
H1704       H  0.64021691  0.63905803  0.32892727     0.32300
H1705       H  0.64423076  0.62460298  0.27746490     0.31300
H1706       H  0.48352626  0.60881542  0.35079571     0.35300
H1707       H  0.52333781  0.54892877  0.34244670     0.28000
H1708       H  0.58683511  0.72455696  0.26733773     0.32300
H1709       H  0.62939870  0.64047950  0.23441997     0.35100
H1710       H  0.56009196  0.64456814  0.38621225     0.27700
H1711       H  0.51902953  0.57414475  0.35738236     0.40600
H1712       H  0.46719110  0.65383113  0.25250822     0.30600
H1713       H  0.46832732  0.66758091  0.30754083     0.38300
H1714       H  0.64195065  0.60070328  0.26011060     0.30100
H1715       H  0.50621827  0.62952991  0.20740161     0.30200
H1716       H  0.59935051  0.70052840  0.25500810     0.30400
Zr1717     Zr  0.50455812  0.34904424  0.19543575     2.17500
O1718       O  0.48554748  0.30854680  0.18376365    -0.51900
O1719       O  0.47060575  0.35780351  0.16427452    -0.75100
O1720       O  0.48948678  0.31600431  0.22372467    -0.81900
O1721       O  0.56443628  0.34808842  0.17216166    -0.83600
O1722       O  0.47738066  0.33588417  0.26019622    -0.79300
O1723       O  0.52787213  0.33322015  0.15945150    -0.90900
O1724       O  0.46951024  0.39962761  0.15509665    -0.76900
O1725       O  0.47842930  0.38229862  0.21146295    -0.86400
O1726       O  0.51875604  0.38517214  0.17189226    -0.86100
O1727       O  0.51666223  0.35436452  0.23915319    -0.72800
O1728       O  0.54950501  0.35459855  0.20452964    -0.84900
Zr1729     Zr  0.54599391  0.42784240  0.24375613     2.26400
Zr1730     Zr  0.48838607  0.38512552  0.25655330     2.06300
Zr1731     Zr  0.56250138  0.39210119  0.18208371     2.10000
Zr1732     Zr  0.49387592  0.41853604  0.18785248     1.78800
O1733       O  0.60740819  0.38857928  0.17194605    -0.93700
O1734       O  0.45143740  0.43396929  0.19780972    -0.41600
O1735       O  0.53739086  0.42600226  0.19855572    -0.78200
O1736       O  0.50296849  0.42046699  0.23108960    -0.96900
O1737       O  0.53292149  0.39116343  0.26678263    -0.90200
O1738       O  0.57263775  0.39530134  0.22640523    -0.93000
C1739       C  0.46317643  0.37687157  0.15084260     1.00700
C1740       C  0.55037274  0.34002661  0.15440667     1.13700
C1741       C  0.48099740  0.31504849  0.24646060     1.04400
O1742       O  0.44240843  0.38580292  0.26101068    -0.95200
O1743       O  0.48052047  0.43278891  0.27004661    -0.90900
O1744       O  0.51881132  0.45289188  0.27056201    -0.84100
C1745       C  0.49461614  0.45356738  0.27217852     1.11100
O1746       O  0.56188204  0.31289438  0.24850482    -0.97200
Zr1747     Zr  0.55971181  0.35898318  0.24876300     1.88900
O1748       O  0.57328559  0.42006604  0.28050632    -0.73800
O1749       O  0.49161504  0.37919194  0.30224422    -0.53100
O1750       O  0.55065418  0.33885292  0.28941983    -0.97700
O1751       O  0.60163094  0.34312309  0.23744441    -0.55000
O1752       O  0.58780775  0.37993810  0.27795620    -0.74300
C1753       C  0.58824771  0.40209855  0.28751411     0.98000
O1754       O  0.54683239  0.47364194  0.24765055    -0.63100
O1755       O  0.56080091  0.40072534  0.13661204    -0.57900
O1756       O  0.58527521  0.44506415  0.22800796    -0.94600
O1757       O  0.57141109  0.43600061  0.19023803    -0.93000
O1758       O  0.50658273  0.43854921  0.14813838    -0.93400
O1759       O  0.48937803  0.46439922  0.18806657    -0.92200
C1760       C  0.58968371  0.44214317  0.20459015     1.16900
H1761       H  0.51645680  0.38324035  0.15383030     0.32800
H1762       H  0.49388547  0.43594923  0.23128881     0.43700
H1763       H  0.59052885  0.39799347  0.22925226     0.37200
H1764       H  0.51771623  0.33894106  0.24882769     0.33700
H1765       H  0.43973840  0.42274581  0.18844937     0.25500
H1766       H  0.47383114  0.37843213  0.30816802     0.31400
H1767       H  0.54891404  0.35300892  0.30149793     0.37300
H1768       H  0.49102127  0.44681359  0.14149827     0.31800
H1769       H  0.55297360  0.41768637  0.13493934     0.30600
H1770       H  0.61530403  0.38172467  0.18759460     0.32300
H1771       H  0.61269938  0.35822478  0.23676359     0.31300
H1772       H  0.50691394  0.47079880  0.19015925     0.35300
H1773       H  0.56292533  0.47747184  0.25656043     0.28000
H1774       H  0.49054183  0.30564597  0.16597376     0.32300
H1775       H  0.55144078  0.30777294  0.23376730     0.35100
H1776       H  0.57862760  0.40294298  0.13118062     0.27700
H1777       H  0.54910572  0.47990191  0.23009277     0.40600
H1778       H  0.43871502  0.37256916  0.27384820     0.30600
H1779       H  0.44885770  0.42939463  0.21584971     0.38300
H1780       H  0.59993965  0.33783540  0.21955200     0.30100
H1781       H  0.49804839  0.36167007  0.30440043     0.30200
H1782       H  0.46702928  0.31172311  0.18254008     0.30400
Zr1783     Zr  0.47380766  0.08983470  0.18622701     2.17500
O1784       O  0.50394497  0.07019291  0.15737088    -0.51900
O1785       O  0.45412136  0.05235560  0.20408846    -0.75100
O1786       O  0.50986133  0.07163244  0.20611663    -0.81900
O1787       O  0.42257477  0.09673952  0.13753964    -0.83600
O1788       O  0.50297387  0.08433272  0.24570501    -0.79300
O1789       O  0.45162578  0.06853497  0.15221491    -0.90900
O1790       O  0.41996728  0.06737546  0.22565038    -0.76900
O1791       O  0.46616452  0.10068587  0.22965117    -0.86400
O1792       O  0.43047647  0.10226688  0.18891465    -0.86100
O1793       O  0.50371637  0.12249228  0.19778232    -0.72800
O1794       O  0.46962164  0.12375073  0.15653392    -0.84900
Zr1795     Zr  0.44516039  0.18012472  0.21295708     2.26400
Zr1796     Zr  0.49486758  0.13410399  0.24116501     2.06300
Zr1797     Zr  0.42611382  0.13653949  0.16001255     2.10000
Zr1798     Zr  0.42284971  0.11241771  0.23180419     1.78800
O1799       O  0.43112878  0.14849283  0.11565900    -0.93700
O1800       O  0.42875247  0.09451261  0.27411594    -0.41600
O1801       O  0.41620776  0.14699595  0.20291091    -0.78200
O1802       O  0.45074678  0.14596073  0.24327641    -0.96900
O1803       O  0.48912457  0.16824603  0.21146953    -0.90200
O1804       O  0.45464341  0.16966002  0.17018726    -0.93000
C1805       C  0.43323842  0.04949635  0.21613223     1.00700
C1806       C  0.43283242  0.07463550  0.13797875     1.13700
C1807       C  0.50850678  0.06606008  0.22939607     1.04400
O1808       O  0.49235120  0.13250554  0.28723560    -0.95200
O1809       O  0.49839971  0.18389485  0.25085690    -0.90900
O1810       O  0.45789237  0.19360608  0.25366903    -0.84100
C1811       C  0.48043576  0.20110180  0.25470216     1.11100
O1812       O  0.52756172  0.13545768  0.14100726    -0.97200
Zr1813     Zr  0.49783151  0.15689803  0.16887239     1.88900
O1814       O  0.46818966  0.21733959  0.19675020    -0.73800
O1815       O  0.54059185  0.13447085  0.24787258    -0.53100
O1816       O  0.54237581  0.16688820  0.17592236    -0.97700
O1817       O  0.49366256  0.17080052  0.12488107    -0.55000
O1818       O  0.49972810  0.20205356  0.17165750    -0.74300
C1819       C  0.48713316  0.22010631  0.18159420     0.98000
O1820       O  0.41021266  0.19943479  0.23653575    -0.63100
O1821       O  0.38155779  0.12650099  0.15294571    -0.57900
O1822       O  0.41381625  0.20240748  0.18853086    -0.94600
O1823       O  0.40318350  0.17643893  0.15608691    -0.93000
O1824       O  0.37821637  0.10198580  0.22615964    -0.93400
O1825       O  0.39362650  0.13533652  0.25913441    -0.92200
C1826       C  0.40207256  0.19761799  0.16792500     1.16900
H1827       H  0.41898025  0.08894093  0.18410858     0.32800
H1828       H  0.44664156  0.15079741  0.26040882     0.43700
H1829       H  0.45214182  0.18396622  0.15897392     0.37200
H1830       H  0.52101014  0.11654792  0.19641458     0.33700
H1831       H  0.41196721  0.08734842  0.27853458     0.25500
H1832       H  0.54609884  0.15114504  0.24124952     0.31400
H1833       H  0.54457979  0.16579610  0.19451934     0.37300
H1834       H  0.37496324  0.10478650  0.20787106     0.31800
H1835       H  0.37234118  0.13553028  0.16649206     0.30600
H1836       H  0.41984411  0.13692135  0.10620518     0.32300
H1837       H  0.48793536  0.18863015  0.12556773     0.31300
H1838       H  0.40401588  0.14140718  0.27351213     0.35300
H1839       H  0.39466678  0.19096539  0.23030982     0.28000
H1840       H  0.49985533  0.07730244  0.14042905     0.32300
H1841       H  0.52711125  0.11753059  0.14649249     0.35100
H1842       H  0.37693611  0.13563457  0.13713724     0.27700
H1843       H  0.41170118  0.19320052  0.25421837     0.40600
H1844       H  0.49619280  0.14998303  0.29269250     0.30600
H1845       H  0.43976637  0.07952120  0.27169274     0.38300
H1846       H  0.47886665  0.16144348  0.11820960     0.30100
H1847       H  0.54266781  0.13579868  0.26647723     0.30200
H1848       H  0.49882746  0.05220315  0.15646892     0.30400
Zr1849     Zr  0.06657805  0.22561906  0.95766101     2.17500
O1850       O  0.02948144  0.19796825  0.95971165    -0.51900
O1851       O  0.08598552  0.18415793  0.95189907    -0.75100
O1852       O  0.04400833  0.23045245  0.91789752    -0.81900
O1853       O  0.05488545  0.24623307  0.02499958    -0.83600
O1854       O  0.07694638  0.23780566  0.89274857    -0.79300
O1855       O  0.03531530  0.22698618  0.99172433    -0.90900
O1856       O  0.12353143  0.18441210  0.93415880    -0.76900
O1857       O  0.10305451  0.22869923  0.93055230    -0.86400
O1858       O  0.10223790  0.21711687  0.98535941    -0.86100
O1859       O  0.06616534  0.26812946  0.93956077    -0.72800
O1860       O  0.06912056  0.25815768  0.98850172    -0.84900
Zr1861     Zr  0.13835367  0.29504240  0.96826970     2.26400
Zr1862     Zr  0.10263522  0.26992626  0.91232999     2.06300
Zr1863     Zr  0.10396911  0.25090782  0.01579166     2.10000
Zr1864     Zr  0.13858161  0.22073362  0.95770360     1.78800
O1865       O  0.10367148  0.27482353  0.05525654    -0.93700
O1866       O  0.17366554  0.20624766  0.93090672    -0.41600
O1867       O  0.13275669  0.25471249  0.98392651    -0.78200
O1868       O  0.14009926  0.26190995  0.93688030    -0.96900
O1869       O  0.10186760  0.30227302  0.94312882    -0.90200
O1870       O  0.10433246  0.29363661  0.99848329    -0.93000
C1871       C  0.10006528  0.17910509  0.93291994     1.00700
C1872       C  0.03432852  0.23692942  0.01384652     1.13700
C1873       C  0.05305420  0.23620475  0.89623270     1.04400
O1874       O  0.12613564  0.25796489  0.87456882    -0.95200
O1875       O  0.13023644  0.30437602  0.89910044    -0.90900
O1876       O  0.16002266  0.30849117  0.92976484    -0.84100
C1877       C  0.15096816  0.31373667  0.90773656     1.11100
O1878       O  0.02204011  0.29248314  0.97205652    -0.97200
Zr1879     Zr  0.06759210  0.29963620  0.97190758     1.88900
O1880       O  0.12509371  0.33950876  0.96555681    -0.73800
O1881       O  0.07415853  0.29460408  0.88532926    -0.53100
O1882       O  0.03625207  0.32554189  0.94970244    -0.97700
O1883       O  0.05816130  0.31543300  0.01415902    -0.55000
O1884       O  0.08244479  0.34106885  0.96173149    -0.74300
C1885       C  0.10420254  0.35139486  0.96115422     0.98000
O1886       O  0.16820751  0.32603446  0.98559846    -0.63100
O1887       O  0.10650976  0.21453586  0.04447227    -0.57900
O1888       O  0.17129521  0.27794667  0.99525737    -0.94600
O1889       O  0.15320498  0.25031182  0.02319081    -0.93000
O1890       O  0.14677874  0.18889035  0.99032811    -0.93400
O1891       O  0.18336700  0.22849258  0.96550177    -0.92200
C1892       C  0.17327642  0.26153520  0.01316126     1.16900
H1893       H  0.10074979  0.20084227  0.99362049     0.32800
H1894       H  0.15507171  0.26271907  0.92638970     0.43700
H1895       H  0.10623350  0.30646648  0.01129654     0.37200
H1896       H  0.05100550  0.27217052  0.93009658     0.33700
H1897       H  0.17070231  0.18812335  0.92726247     0.25500
H1898       H  0.06626085  0.30701760  0.89685492     0.31400
H1899       H  0.04324923  0.32807552  0.93246976     0.37300
H1900       H  0.14694785  0.17257286  0.98118264     0.31800
H1901       H  0.09138273  0.20419123  0.04047146     0.30600
H1902       H  0.08890834  0.26819264  0.06480624     0.32300
H1903       H  0.03958716  0.31341476  0.01604198     0.31300
H1904       H  0.18652055  0.24580864  0.95895254     0.35300
H1905       H  0.16793278  0.32407336  0.00427641     0.28000
H1906       H  0.03619000  0.18082916  0.96334637     0.32300
H1907       H  0.01997773  0.27459982  0.96698019     0.35100
H1908       H  0.12104810  0.20447293  0.03820345     0.27700
H1909       H  0.18542106  0.32077431  0.98022879     0.40600
H1910       H  0.11568641  0.26438098  0.86027286     0.30600
H1911       H  0.17153727  0.21511285  0.91446254     0.38300
H1912       H  0.06074685  0.33394712  0.01283772     0.30100
H1913       H  0.08539740  0.30485005  0.87431235     0.30200
H1914       H  0.02225621  0.19696187  0.94242242     0.30400
Zr1915     Zr  0.89753901  0.19663256  0.96248443     2.17500
O1916       O  0.94234463  0.20459663  0.95330126    -0.51900
O1917       O  0.89691825  0.22544546  0.92676856    -0.75100
O1918       O  0.91436402  0.16207723  0.93772349    -0.81900
O1919       O  0.90243875  0.24058700  0.01769293    -0.83600
O1920       O  0.88094106  0.14062338  0.92269635    -0.79300
O1921       O  0.92672365  0.21829439  0.98989287    -0.90900
O1922       O  0.85677894  0.23176445  0.91272586    -0.76900
O1923       O  0.86391184  0.17709736  0.94013682    -0.86400
O1924       O  0.86379109  0.22719874  0.96485882    -0.86100
O1925       O  0.89049544  0.15668224  0.98379892    -0.72800
O1926       O  0.88707955  0.20219306  0.00582007    -0.84900
Zr1927     Zr  0.81233852  0.17277133  0.00635513     2.26400
Zr1928     Zr  0.85547080  0.13758250  0.96146472     2.06300
Zr1929     Zr  0.85371745  0.23236842  0.00895101     2.10000
Zr1930     Zr  0.83057416  0.20675166  0.94122015     1.78800
O1931       O  0.84840517  0.24527511  0.05286807    -0.93700
O1932       O  0.82816074  0.18635168  0.89996631    -0.41600
O1933       O  0.82236078  0.21121986  0.98504808    -0.78200
O1934       O  0.82025966  0.16677598  0.96168428    -0.96900
O1935       O  0.84671116  0.14388131  0.00548746    -0.90200
O1936       O  0.84496956  0.19313700  0.03029560    -0.93000
C1937       C  0.88070308  0.23600912  0.91201348     1.00700
C1938       C  0.92480823  0.23321591  0.00876474     1.13700
C1939       C  0.90292596  0.15071211  0.91974196     1.04400
O1940       O  0.82827929  0.11483566  0.93203467    -0.95200
O1941       O  0.82929385  0.10815049  0.98712030    -0.90900
O1942       O  0.79611968  0.13381493  0.99001127    -0.84100
C1943       C  0.80666750  0.11275744  0.99493053     1.11100
O1944       O  0.92528166  0.15833449  0.03479059    -0.97200
Zr1945     Zr  0.87987696  0.16387042  0.02773868     1.88900
O1946       O  0.81250946  0.15877309  0.05034139    -0.73800
O1947       O  0.88302400  0.10048984  0.96211849    -0.53100
O1948       O  0.89187601  0.12015623  0.03662781    -0.97700
O1949       O  0.89368832  0.18907361  0.06376498    -0.55000
O1950       O  0.85307603  0.14995335  0.06181927    -0.74300
C1951       C  0.82927351  0.15115634  0.06630702     0.98000
O1952       O  0.76682850  0.17180712  0.01582389    -0.63100
O1953       O  0.85767675  0.27743405  0.00005284    -0.57900
O1954       O  0.78179889  0.20549800  0.00756179    -0.94600
O1955       O  0.80418271  0.24232334  0.00760550    -0.93000
O1956       O  0.80820457  0.24689239  0.93670204    -0.93400
O1957       O  0.78516551  0.20704496  0.93217382    -0.92200
C1958       C  0.78244425  0.22947568  0.00713403     1.16900
H1959       H  0.86811725  0.24376342  0.95844753     0.32800
H1960       H  0.80580790  0.15949805  0.95309887     0.43700
H1961       H  0.84010411  0.19669749  0.04753928     0.37200
H1962       H  0.90541510  0.14605343  0.98288559     0.33700
H1963       H  0.82458166  0.16835274  0.90384284     0.25500
H1964       H  0.90011752  0.10686700  0.95770900     0.31400
H1965       H  0.87580497  0.11051228  0.03571908     0.37300
H1966       H  0.80758640  0.25383462  0.95407683     0.31800
H1967       H  0.83997373  0.28365836  0.99919081     0.30600
H1968       H  0.83062627  0.25127566  0.05384985     0.32300
H1969       H  0.90828284  0.19911494  0.05756188     0.31300
H1970       H  0.78071863  0.18926335  0.92848102     0.35300
H1971       H  0.75910121  0.15834940  0.00537605     0.28000
H1972       H  0.94310686  0.21090603  0.93561665     0.32300
H1973       H  0.93314945  0.16220112  0.01819858     0.35100
H1974       H  0.86453539  0.28466876  0.01593356     0.27700
H1975       H  0.76509085  0.16590803  0.03356583     0.40600
H1976       H  0.83430815  0.09708425  0.93299537     0.30600
H1977       H  0.81237458  0.19281406  0.89201460     0.38300
H1978       H  0.90109444  0.17675338  0.07592435     0.30100
H1979       H  0.88429369  0.09578508  0.98026971     0.30200
H1980       H  0.95092297  0.18792117  0.95297041     0.30400
Zr1981     Zr  0.64292813  0.20493079  0.06068022     2.17500
O1982       O  0.68669314  0.18965436  0.05971951    -0.51900
O1983       O  0.63435124  0.15967010  0.06576946    -0.75100
O1984       O  0.66184279  0.20401231  0.10236275    -0.81900
O1985       O  0.65143068  0.23428211  0.99917783    -0.83600
O1986       O  0.62822832  0.20486878  0.12774318    -0.79300
O1987       O  0.67050710  0.20491440  0.02403387    -0.90900
O1988       O  0.59348446  0.15526050  0.07773584    -0.76900
O1989       O  0.60896283  0.20159441  0.08976648    -0.86400
O1990       O  0.60687055  0.19501110  0.03473160    -0.86100
O1991       O  0.64151347  0.24605791  0.08068465    -0.72800
O1992       O  0.63566490  0.24006601  0.03305699    -0.84900
Zr1993     Zr  0.56405795  0.26824003  0.05615900     2.26400
Zr1994     Zr  0.60647690  0.24199918  0.10962319     2.06300
Zr1995     Zr  0.60179235  0.23046652  0.00571849     2.10000
Zr1996     Zr  0.57271072  0.19340357  0.06505123     1.78800
O1997       O  0.60011842  0.25416813  0.96596351    -0.93700
O1998       O  0.55517278  0.18279696  0.10662773    -0.41600
O1999       O  0.56936369  0.22810975  0.03663142    -0.78200
O2000       O  0.56855315  0.23327726  0.08551829    -0.96900
O2001       O  0.60042339  0.27723431  0.08151645    -0.90200
O2002       O  0.59721113  0.27134507  0.02524515    -0.93000
C2003       C  0.61559137  0.14637987  0.07383152     1.00700
C2004       C  0.67220500  0.22276811  0.00770296     1.13700
C2005       C  0.65010217  0.19595924  0.12188572     1.04400
O2006       O  0.59826543  0.23564358  0.15466251    -0.95200
O2007       O  0.56806874  0.26021038  0.12734056    -0.90900
O2008       O  0.54327250  0.27700116  0.09628265    -0.84100
C2009       C  0.54750171  0.27078091  0.11942436     1.11100
O2010       O  0.67655487  0.28473067  0.03433787    -0.97200
Zr2011     Zr  0.63373339  0.28070045  0.05112150     1.88900
O2012       O  0.57564421  0.31184095  0.04648559    -0.73800
O2013       O  0.63582983  0.27155952  0.12929665    -0.53100
O2014       O  0.66400145  0.30035214  0.07982202    -0.97700
O2015       O  0.63285835  0.30978506  0.01491480    -0.55000
O2016       O  0.61279510  0.31791267  0.06536110    -0.74300
C2017       C  0.58999741  0.32469235  0.06104674     0.98000
O2018       O  0.52438040  0.28999684  0.04570886    -0.63100
O2019       O  0.60333927  0.19611646  0.97520234    -0.57900
O2020       O  0.53187239  0.25236605  0.02776773    -0.94600
O2021       O  0.55257158  0.22988567  0.99739242    -0.93000
O2022       O  0.55681642  0.16365766  0.03369105    -0.93400
O2023       O  0.52671233  0.18922004  0.06489827    -0.92200
C2024       C  0.53150722  0.23860803  0.00789673     1.16900
H2025       H  0.60897359  0.17913892  0.02597174     0.32800
H2026       H  0.55354658  0.23091213  0.09567790     0.43700
H2027       H  0.59347108  0.28419238  0.01267228     0.37200
H2028       H  0.65718055  0.24927058  0.08965432     0.33700
H2029       H  0.55674376  0.16419739  0.10826216     0.25500
H2030       H  0.62701206  0.27743303  0.14473772     0.31400
H2031       H  0.66589056  0.31789958  0.07338245     0.37300
H2032       H  0.55559647  0.14726143  0.04281004     0.31800
H2033       H  0.61790546  0.18551882  0.98060520     0.30600
H2034       H  0.59157489  0.27031985  0.97005890     0.32300
H2035       H  0.63992347  0.30030448  0.00042631     0.31300
H2036       H  0.52309179  0.17182147  0.07096070     0.35300
H2037       H  0.51959690  0.29977507  0.06086667     0.28000
H2038       H  0.68720730  0.17486715  0.07130154     0.32300
H2039       H  0.67545726  0.27908201  0.01652787     0.35100
H2040       H  0.58817347  0.18574375  0.97904148     0.27700
H2041       H  0.52882267  0.30296089  0.03282001     0.40600
H2042       H  0.58606269  0.22141140  0.15546903     0.30600
H2043       H  0.56751776  0.18954547  0.11904459     0.38300
H2044       H  0.64566197  0.32288925  0.01883114     0.30100
H2045       H  0.64987841  0.26080894  0.13574621     0.30200
H2046       H  0.69693333  0.20270683  0.06841511     0.30400
Zr2047     Zr  0.31670282  0.30586548  0.97899343     2.17500
O2048       O  0.27693719  0.30205092  0.95513405    -0.51900
O2049       O  0.32536679  0.31222840  0.93467157    -0.75100
O2050       O  0.29683880  0.34652888  0.97964507    -0.81900
O2051       O  0.30379049  0.24439829  0.00873635    -0.83600
O2052       O  0.32555730  0.37511876  0.99338528    -0.79300
O2053       O  0.28588957  0.27153291  0.98096494    -0.90900
O2054       O  0.36717493  0.31863295  0.92763943    -0.76900
O2055       O  0.35223138  0.33344686  0.97709178    -0.86400
O2056       O  0.35083272  0.27872231  0.96720093    -0.86100
O2057       O  0.31927092  0.32486995  0.02078902    -0.72800
O2058       O  0.32271176  0.27737139  0.01273983    -0.84900
Zr2059     Zr  0.39424583  0.29244010  0.04096696     2.26400
Zr2060     Zr  0.35648980  0.35096969  0.01871417     2.06300
Zr2061     Zr  0.35308002  0.24755758  0.00086144     2.10000
Zr2062     Zr  0.38692337  0.30674976  0.96703819     1.78800
O2063       O  0.35450231  0.20675328  0.02248474    -0.93700
O2064       O  0.40746406  0.34624672  0.95470832    -0.41600
O2065       O  0.38794572  0.27589973  0.99972591    -0.78200
O2066       O  0.39247324  0.32497644  0.00841045    -0.96900
O2067       O  0.36045022  0.32008852  0.05201566    -0.90200
O2068       O  0.35834738  0.26473112  0.04240286    -0.93000
C2069       C  0.34404171  0.31815965  0.92049990     1.00700
C2070       C  0.28340088  0.25531408  0.99882786     1.13700
C2071       C  0.30456138  0.36922213  0.98240226     1.04400
O2072       O  0.38489476  0.38347632  0.00238291    -0.95200
O2073       O  0.38214471  0.36088697  0.05602513    -0.90900
O2074       O  0.41334399  0.33142518  0.05528868    -0.84100
C2075       C  0.40298903  0.35126981  0.06429970     1.11100
O2076       O  0.28137077  0.30608763  0.06408327    -0.97200
Zr2077     Zr  0.32472998  0.29365959  0.05405414     1.88900
O2078       O  0.38525437  0.27443781  0.08299381    -0.73800
O2079       O  0.33426048  0.38305072  0.04314603    -0.53100
O2080       O  0.32825860  0.32476637  0.08771372    -0.97700
O2081       O  0.29405717  0.26017966  0.06244401    -0.55000
O2082       O  0.34286142  0.27328107  0.09032677    -0.74300
C2083       C  0.36577550  0.26845884  0.09644551     0.98000
O2084       O  0.43547058  0.28567149  0.06128259    -0.63100
O2085       O  0.34509453  0.22142021  0.96380970    -0.57900
O2086       O  0.42398853  0.26230147  0.02297757    -0.94600
O2087       O  0.40089113  0.23495354  0.99898871    -0.93000
O2088       O  0.40176932  0.27534948  0.93690501    -0.93400
O2089       O  0.43289851  0.30220781  0.96594481    -0.92200
C2090       C  0.42267819  0.24319912  0.00815126     1.16900
H2091       H  0.34805466  0.27114107  0.95083280     0.32800
H2092       H  0.40777009  0.33503133  0.00837170     0.43700
H2093       H  0.36023816  0.25008238  0.05325026     0.37200
H2094       H  0.30461898  0.33516018  0.02469418     0.33700
H2095       H  0.41282884  0.34363418  0.93694196     0.25500
H2096       H  0.33699234  0.37850916  0.06116534     0.31400
H2097       H  0.32115244  0.34053415  0.08036206     0.37300
H2098       H  0.40805421  0.28532259  0.92225764     0.31800
H2099       H  0.32897117  0.22795784  0.95661566     0.30600
H2100       H  0.33735876  0.20475998  0.02985476     0.32300
H2101       H  0.29137579  0.26043229  0.08100332     0.31300
H2102       H  0.43917953  0.31189425  0.98067398     0.35300
H2103       H  0.44762185  0.29671899  0.05214519     0.28000
H2104       H  0.27221758  0.31932916  0.94959386     0.32300
H2105       H  0.28177859  0.31282131  0.08153115     0.35100
H2106       H  0.35825426  0.22639867  0.95136997     0.27700
H2107       H  0.43407626  0.29311447  0.07841021     0.40600
H2108       H  0.37356568  0.39762801  0.99736235     0.30600
H2109       H  0.39350078  0.35876468  0.95354723     0.38300
H2110       H  0.30357071  0.24429962  0.05948993     0.30100
H2111       H  0.34440669  0.39861619  0.04060969     0.30200
H2112       H  0.28120419  0.29330598  0.93911732     0.30400
Zr2113     Zr  0.56290278  0.05796360  0.77863122     2.17500
O2114       O  0.56101248  0.01340291  0.79110199    -0.51900
O2115       O  0.55732789  0.06708861  0.82303510    -0.75100
O2116       O  0.60322725  0.04150529  0.79134742    -0.81900
O2117       O  0.50578196  0.04717927  0.74202530    -0.83600
O2118       O  0.63493249  0.06041404  0.76956857    -0.79300
O2119       O  0.52724602  0.02942126  0.77473906    -0.90900
O2120       O  0.57814546  0.10379915  0.82658548    -0.76900
O2121       O  0.59136104  0.09234582  0.78460906    -0.86400
O2122       O  0.53437557  0.09259031  0.78409244    -0.86100
O2123       O  0.58974825  0.05940960  0.74161984    -0.72800
O2124       O  0.54069765  0.06298343  0.74001971    -0.84900
Zr2125     Zr  0.56441183  0.13369672  0.71245341     2.26400
Zr2126     Zr  0.61612219  0.09637299  0.74662745     2.06300
Zr2127     Zr  0.51177698  0.09679390  0.74456002     2.10000
Zr2128     Zr  0.56344756  0.12708571  0.78910024     1.78800
O2129       O  0.47798435  0.10215837  0.71322962    -0.93700
O2130       O  0.59760479  0.15414162  0.80496146    -0.41600
O2131       O  0.54324775  0.12582220  0.75001831    -0.78200
O2132       O  0.58926941  0.13296516  0.75141291    -0.96900
O2133       O  0.59249731  0.09878347  0.70775629    -0.90200
O2134       O  0.53662308  0.09868933  0.70612863    -0.93000
C2135       C  0.57076743  0.08251312  0.83576834     1.00700
C2136       C  0.51299221  0.02701050  0.75530533     1.13700
C2137       C  0.62649547  0.04356179  0.78512358     1.04400
O2138       O  0.64023862  0.12507726  0.77333277    -0.95200
O2139       O  0.63272547  0.12047716  0.71007739    -0.90900
O2140       O  0.60567702  0.15326969  0.70718958    -0.84100
C2141       C  0.62619986  0.14212769  0.70080136     1.11100
O2142       O  0.57126614  0.01767327  0.69919572    -0.97200
Zr2143     Zr  0.56577857  0.06330875  0.70321048     1.88900
O2144       O  0.56418216  0.12291534  0.66683588    -0.73800
O2145       O  0.65749403  0.08058568  0.73351638    -0.53100
O2146       O  0.60666580  0.05432971  0.68368607    -0.97700
O2147       O  0.53076028  0.04021543  0.68388124    -0.55000
O2148       O  0.56460936  0.08056939  0.66179377    -0.74300
C2149       C  0.56424705  0.10292634  0.65295632     0.98000
O2150       O  0.55790930  0.17272852  0.68778881    -0.63100
O2151       O  0.47443499  0.09215571  0.77154367    -0.57900
O2152       O  0.53053095  0.16427401  0.71866002    -0.94600
O2153       O  0.50681367  0.14610845  0.74940674    -0.93000
O2154       O  0.54879706  0.17009932  0.79662985    -0.93400
O2155       O  0.52951722  0.13222970  0.82016451    -0.92200
C2156       C  0.51569552  0.16642977  0.73766505     1.16900
H2157       H  0.52307199  0.09015434  0.79826963     0.32800
H2158       H  0.59930530  0.14810484  0.75322068     0.43700
H2159       H  0.52602597  0.10065654  0.69127843     0.37200
H2160       H  0.59992119  0.04423729  0.74052578     0.33700
H2161       H  0.59100258  0.16160678  0.82081245     0.25500
H2162       H  0.65510443  0.07496906  0.71581079     0.31400
H2163       H  0.60253881  0.04550835  0.66770232     0.37300
H2164       H  0.53081202  0.17031215  0.79122716     0.31800
H2165       H  0.47985690  0.08099146  0.78571416     0.30600
H2166       H  0.47798468  0.08615773  0.70355691     0.32300
H2167       H  0.51761662  0.05324679  0.68060593     0.31300
H2168       H  0.53824603  0.13462378  0.83662993     0.35300
H2169       H  0.57422691  0.17628257  0.67923749     0.28000
H2170       H  0.56679026  0.01272161  0.80896509     0.32300
H2171       H  0.58710776  0.01358412  0.70848685     0.35100
H2172       H  0.47213121  0.10898618  0.77933012     0.27700
H2173       H  0.54633644  0.16821975  0.67366617     0.40600
H2174       H  0.65776237  0.11830823  0.77321298     0.30600
H2175       H  0.61095847  0.14226273  0.81087191     0.38300
H2176       H  0.52352222  0.02964853  0.69762602     0.30100
H2177       H  0.66867265  0.09558512  0.73231788     0.30200
H2178       H  0.57435975  0.00460795  0.78129519     0.30400
Zr2179     Zr  0.53913438  0.88588179  0.81071132     2.17500
O2180       O  0.56405136  0.92452669  0.80552665    -0.51900
O2181       O  0.58396399  0.87313599  0.81261943    -0.75100
O2182       O  0.54235067  0.90549680  0.85191934    -0.81900
O2183       O  0.51104171  0.89575095  0.74511121    -0.83600
O2184       O  0.53578847  0.87364253  0.87949766    -0.79300
O2185       O  0.53078641  0.91678265  0.77717560    -0.90900
O2186       O  0.58573600  0.83260275  0.82662782    -0.76900
O2187       O  0.53993981  0.85164551  0.84001263    -0.86400
O2188       O  0.54617889  0.84964109  0.78445497    -0.86100
O2189       O  0.49833650  0.88736998  0.83175009    -0.72800
O2190       O  0.50369925  0.88084140  0.78347840    -0.84900
Zr2191     Zr  0.47141410  0.81204378  0.80601209     2.26400
Zr2192     Zr  0.49949457  0.85186418  0.86030565     2.06300
Zr2193     Zr  0.51057448  0.84701925  0.75544498     2.10000
Zr2194     Zr  0.54580797  0.81529358  0.81482302     1.78800
O2195       O  0.48356701  0.84705038  0.71792323    -0.93700
O2196       O  0.55835438  0.79370865  0.85387229    -0.41600
O2197       O  0.51155234  0.81387872  0.78591963    -0.78200
O2198       O  0.50588572  0.81389656  0.83618265    -0.96900
O2199       O  0.46440767  0.84824074  0.83185440    -0.90200
O2200       O  0.46967982  0.84599620  0.77567955    -0.93000
C2201       C  0.59609296  0.85356354  0.82084256     1.00700
C2202       C  0.51944198  0.91687484  0.75559137     1.13700
C2203       C  0.54637814  0.89465555  0.87325130     1.04400
O2204       O  0.50826999  0.84032147  0.90423907    -0.95200
O2205       O  0.47559923  0.81668164  0.87841144    -0.90900
O2206       O  0.45834429  0.79454968  0.84604779    -0.84100
C2207       C  0.46228981  0.79835231  0.86963485     1.11100
O2208       O  0.46399901  0.92772035  0.79474387    -0.97200
Zr2209     Zr  0.46311856  0.88235803  0.80239909     1.88900
O2210       O  0.42964989  0.82575419  0.79311743    -0.73800
O2211       O  0.47022528  0.88214883  0.87902530    -0.53100
O2212       O  0.44096766  0.91009462  0.83170387    -0.97700
O2213       O  0.44084422  0.89208568  0.76292665    -0.55000
O2214       O  0.42405576  0.86169834  0.81402642    -0.74300
C2215       C  0.41658335  0.83967578  0.80766935     0.98000
O2216       O  0.44387492  0.77488143  0.80399360    -0.63100
O2217       O  0.54560173  0.84691396  0.72543182    -0.57900
O2218       O  0.48565073  0.77912102  0.77737868    -0.94600
O2219       O  0.50797409  0.79827570  0.74579387    -0.93000
O2220       O  0.57513981  0.79934500  0.78310101    -0.93400
O2221       O  0.54333801  0.76941239  0.81307550    -0.92200
C2222       C  0.49829104  0.77780945  0.75671965     1.16900
H2223       H  0.56204990  0.85063491  0.77536143     0.32800
H2224       H  0.50642015  0.79900784  0.84686365     0.43700
H2225       H  0.45681479  0.84388355  0.76280169     0.37200
H2226       H  0.49624817  0.90305699  0.84081621     0.33700
H2227       H  0.57588135  0.78770903  0.85078116     0.25500
H2228       H  0.46236386  0.87288679  0.89336330     0.31400
H2229       H  0.42379133  0.91232514  0.82433651     0.37300
H2230       H  0.58851330  0.79048218  0.79295791     0.31800
H2231       H  0.54141887  0.83317534  0.71345832     0.30600
H2232       H  0.49413761  0.85472391  0.70443366     0.32300
H2233       H  0.42772073  0.87880795  0.76120413     0.31300
H2234       H  0.52494257  0.76563840  0.81321348     0.35300
H2235       H  0.43881391  0.77307293  0.78599973     0.28000
H2236       H  0.57822570  0.91978759  0.79421619     0.32300
H2237       H  0.48116855  0.93299239  0.80022001     0.35100
H2238       H  0.54335659  0.86267940  0.71541378     0.27700
H2239       H  0.45467435  0.75995287  0.80777045     0.40600
H2240       H  0.50243218  0.85493915  0.91434138     0.30600
H2241       H  0.56025623  0.80738252  0.86648547     0.38300
H2242       H  0.45323390  0.88858432  0.74929061     0.30100
H2243       H  0.48130396  0.89488174  0.88713276     0.30200
H2244       H  0.57233192  0.92757165  0.82208015     0.30400
Zr2245     Zr  0.43843193  0.63381970  0.78659113     2.17500
O2246       O  0.43985392  0.67216407  0.81227576    -0.51900
O2247       O  0.44580906  0.62417555  0.83136640    -0.75100
O2248       O  0.39697913  0.65137856  0.79420087    -0.81900
O2249       O  0.49950433  0.64651408  0.74954243    -0.83600
O2250       O  0.36978530  0.61883538  0.79402922    -0.79300
O2251       O  0.46846870  0.66605166  0.77200170    -0.90900
O2252       O  0.44054364  0.58201635  0.83759466    -0.76900
O2253       O  0.41213901  0.59791415  0.79345180    -0.86400
O2254       O  0.46764288  0.59925789  0.79089779    -0.86100
O2255       O  0.41008635  0.63204626  0.75043942    -0.72800
O2256       O  0.46011503  0.63034448  0.74733940    -0.84900
Zr2257     Zr  0.43663569  0.55846328  0.72139340     2.26400
Zr2258     Zr  0.38490615  0.59483862  0.75732973     2.06300
Zr2259     Zr  0.49066426  0.59743637  0.75136988     2.10000
Zr2260     Zr  0.44009533  0.56313601  0.79641401     1.78800
O2261       O  0.52578790  0.59646982  0.72145388    -0.93700
O2262       O  0.40400915  0.54402853  0.81806493    -0.41600
O2263       O  0.46250134  0.56322752  0.75775945    -0.78200
O2264       O  0.41264478  0.55892280  0.76031927    -0.96900
O2265       O  0.40690962  0.59235510  0.71760222    -0.90200
O2266       O  0.46399841  0.59389680  0.71409152    -0.93000
C2267       C  0.44440449  0.60441418  0.84559992     1.00700
C2268       C  0.48842292  0.66730268  0.75809565     1.13700
C2269       C  0.37739812  0.64011193  0.80288725     1.04400
O2270       O  0.34958015  0.57533231  0.77975242    -0.95200
O2271       O  0.36516123  0.56008232  0.73449671    -0.90900
O2272       O  0.39629298  0.53891679  0.71425791    -0.84100
C2273       C  0.37306359  0.54209637  0.72029549     1.11100
O2274       O  0.43074191  0.65958195  0.67731490    -0.97200
Zr2275     Zr  0.43350193  0.62790748  0.71106439     1.88900
O2276       O  0.44149508  0.57036636  0.67754347    -0.73800
O2277       O  0.35422031  0.61986360  0.73335066    -0.53100
O2278       O  0.40780370  0.66647727  0.71127486    -0.97700
O2279       O  0.47272466  0.64290274  0.69161369    -0.55000
O2280       O  0.41561756  0.60365478  0.67660022    -0.74300
C2281       C  0.42446429  0.58355380  0.66659615     0.98000
O2282       O  0.43631041  0.52006999  0.69569670    -0.63100
O2283       O  0.52405542  0.59966423  0.78327801    -0.57900
O2284       O  0.46865535  0.52730068  0.73211376    -0.94600
O2285       O  0.50155407  0.54862122  0.75003672    -0.93000
O2286       O  0.47721576  0.54292417  0.81529984    -0.93400
O2287       O  0.43995408  0.51710838  0.79587034    -0.92200
C2288       C  0.49054777  0.52732654  0.74258960     1.16900
H2289       H  0.47912813  0.60139152  0.80500296     0.32800
H2290       H  0.40305367  0.54350435  0.76246786     0.43700
H2291       H  0.47452843  0.59216613  0.69919579     0.37200
H2292       H  0.39896651  0.64652632  0.74992809     0.33700
H2293       H  0.41066576  0.53882670  0.83488028     0.25500
H2294       H  0.36287767  0.62377911  0.71717082     0.31400
H2295       H  0.39041189  0.66097833  0.70678589     0.37300
H2296       H  0.49061444  0.55601143  0.81481108     0.31800
H2297       H  0.52884090  0.58179969  0.78649961     0.30600
H2298       H  0.52245202  0.61061017  0.70951217     0.32300
H2299       H  0.47526730  0.63207094  0.67656213     0.31300
H2300       H  0.43655975  0.51269092  0.77796822     0.35300
H2301       H  0.43485375  0.50551950  0.70754898     0.28000
H2302       H  0.45773354  0.67436076  0.81765845     0.32300
H2303       H  0.42014311  0.65184346  0.66392041     0.35100
H2304       H  0.53877652  0.60695051  0.77419678     0.27700
H2305       H  0.45338056  0.51857876  0.68802387     0.40600
H2306       H  0.35632176  0.55890874  0.78594221     0.30600
H2307       H  0.39244787  0.55832983  0.82168305     0.38300
H2308       H  0.48656750  0.63809297  0.70334891     0.30100
H2309       H  0.34080084  0.60764091  0.72862811     0.30200
H2310       H  0.43625047  0.68654614  0.80066686     0.30400
Zr2311     Zr  0.53195634  0.31041835  0.69114444     2.17500
O2312       O  0.56081549  0.27404835  0.69041976    -0.51900
O2313       O  0.57484476  0.32501696  0.69521209    -0.75100
O2314       O  0.54040035  0.29067105  0.65191069    -0.81900
O2315       O  0.50326114  0.29820879  0.75518584    -0.83600
O2316       O  0.51858623  0.30943751  0.61990103    -0.79300
O2317       O  0.52445849  0.27882394  0.72332336    -0.90900
O2318       O  0.57347834  0.35688450  0.66780893    -0.76900
O2319       O  0.53311265  0.34371538  0.66061236    -0.86400
O2320       O  0.53781732  0.34646963  0.71759709    -0.86100
O2321       O  0.49243543  0.30816600  0.66780594    -0.72800
O2322       O  0.49586717  0.31294974  0.71737060    -0.84900
Zr2323     Zr  0.46192320  0.38143899  0.69121970     2.26400
Zr2324     Zr  0.49329281  0.34327607  0.63876402     2.06300
Zr2325     Zr  0.50061481  0.34751656  0.74449333     2.10000
Zr2326     Zr  0.53796414  0.38001640  0.68626013     1.78800
O2327       O  0.47169605  0.34856878  0.78037459    -0.93700
O2328       O  0.57499945  0.40736326  0.68085025    -0.41600
O2329       O  0.50154101  0.37921307  0.71255959    -0.78200
O2330       O  0.49816734  0.38145386  0.66265808    -0.96900
O2331       O  0.45757281  0.34439108  0.66640184    -0.90200
O2332       O  0.46031509  0.34811630  0.72222093    -0.93000
C2333       C  0.58459528  0.33733806  0.67694910     1.00700
C2334       C  0.51295204  0.27755376  0.74456642     1.13700
C2335       C  0.53412609  0.29278853  0.62873150     1.04400
O2336       O  0.51547068  0.37057421  0.60881615    -0.95200
O2337       O  0.45444071  0.36442879  0.62431406    -0.90900
O2338       O  0.45338499  0.39826697  0.64971842    -0.84100
C2339       C  0.44483482  0.38569060  0.63100971     1.11100
O2340       O  0.46465650  0.26656465  0.70559769    -0.97200
Zr2341     Zr  0.45665061  0.31096505  0.69620153     1.88900
O2342       O  0.41706097  0.36815096  0.69399979    -0.73800
O2343       O  0.47132772  0.32437889  0.60283001    -0.53100
O2344       O  0.43613819  0.27924426  0.66993818    -0.97700
O2345       O  0.43368175  0.30386014  0.73566168    -0.55000
O2346       O  0.41520082  0.32642890  0.68493830    -0.74300
C2347       C  0.40463642  0.34784373  0.68860564     0.98000
O2348       O  0.43281566  0.41732965  0.69462123    -0.63100
O2349       O  0.53338860  0.34907130  0.77708638    -0.57900
O2350       O  0.47655058  0.41514947  0.71959317    -0.94600
O2351       O  0.50004538  0.39672104  0.75104857    -0.93000
O2352       O  0.55031094  0.39817253  0.72681921    -0.93400
O2353       O  0.53282827  0.42086926  0.66488835    -0.92200
C2354       C  0.49065331  0.41699439  0.73945827     1.16900
H2355       H  0.55300951  0.34595998  0.72789821     0.32800
H2356       H  0.49795246  0.39568744  0.65115241     0.43700
H2357       H  0.44615039  0.35044317  0.73359751     0.37200
H2358       H  0.49123902  0.29239607  0.65874332     0.33700
H2359       H  0.58841497  0.39988989  0.69174403     0.25500
H2360       H  0.48381874  0.32396195  0.58885714     0.31400
H2361       H  0.44531994  0.27994257  0.65360183     0.37300
H2362       H  0.56644084  0.38972223  0.73154212     0.31800
H2363       H  0.54474394  0.33462797  0.77332681     0.30600
H2364       H  0.46820341  0.36677503  0.78300157     0.32300
H2365       H  0.44675039  0.30473944  0.74912938     0.31300
H2366       H  0.53781984  0.41785942  0.64705364     0.35300
H2367       H  0.42898028  0.41916773  0.71287638     0.28000
H2368       H  0.55026387  0.25854664  0.69034815     0.32300
H2369       H  0.48058149  0.26247962  0.69657313     0.35100
H2370       H  0.54352333  0.36427689  0.77283010     0.27700
H2371       H  0.44267556  0.43260078  0.68993640     0.40600
H2372       H  0.53367114  0.36840025  0.61305528     0.30600
H2373       H  0.58109282  0.40455642  0.66333538     0.38300
H2374       H  0.42846452  0.28588901  0.73526827     0.30100
H2375       H  0.46873440  0.30644434  0.60770447     0.30200
H2376       H  0.56971852  0.27385722  0.70697016     0.30400
Zr2377     Zr  0.26356694  0.41690792  0.72590477     2.17500
O2378       O  0.25302303  0.40136163  0.68367719    -0.51900
O2379       O  0.29234017  0.44955132  0.71128671    -0.75100
O2380       O  0.23393962  0.44262943  0.70463214    -0.81900
O2381       O  0.29856768  0.35587605  0.73182422    -0.83600
O2382       O  0.24095066  0.47852806  0.72592803    -0.79300
O2383       O  0.29002113  0.38683033  0.70321889    -0.90900
O2384       O  0.32719538  0.44158467  0.73461466    -0.76900
O2385       O  0.27705923  0.45179010  0.75147142    -0.86400
O2386       O  0.29771016  0.40203237  0.75139122    -0.86100
O2387       O  0.22677034  0.43039283  0.75031922    -0.72800
O2388       O  0.24477243  0.38191779  0.74777327    -0.84900
Zr2389     Zr  0.25788941  0.41274580  0.82369230     2.26400
Zr2390     Zr  0.24125041  0.46587391  0.77514567     2.06300
Zr2391     Zr  0.27948705  0.36680943  0.77265012     2.10000
Zr2392     Zr  0.31072311  0.43583615  0.77704302     1.78800
O2393       O  0.25336972  0.32904542  0.76865280    -0.93700
O2394       O  0.32497662  0.47965909  0.77462229    -0.41600
O2395       O  0.29425957  0.40031258  0.79980571    -0.78200
O2396       O  0.27505012  0.44887263  0.80133303    -0.96900
O2397       O  0.22375928  0.43073382  0.79944598    -0.90200
O2398       O  0.24393561  0.37831776  0.79821850    -0.93000
C2399       C  0.31545674  0.45384329  0.71726257     1.00700
C2400       C  0.30176999  0.36663272  0.71007004     1.13700
C2401       C  0.23673299  0.46633381  0.70429447     1.04400
O2402       O  0.25854939  0.50856260  0.77456133    -0.95200
O2403       O  0.24005669  0.48241475  0.82249551    -0.90900
O2404       O  0.25203822  0.45007544  0.84854355    -0.84100
C2405       C  0.24551318  0.47313354  0.84536624     1.11100
O2406       O  0.18588077  0.38946392  0.73524870    -0.97200
Zr2407     Zr  0.20999090  0.39595885  0.77411952     1.88900
O2408       O  0.22320567  0.39023392  0.84371934    -0.73800
O2409       O  0.19900631  0.48441037  0.77238267    -0.53100
O2410       O  0.17192316  0.42199771  0.77713646    -0.97700
O2411       O  0.19039407  0.35469774  0.76785156    -0.55000
O2412       O  0.19297246  0.38165344  0.81456221    -0.74300
C2413       C  0.20188852  0.38070514  0.83716262     0.98000
O2414       O  0.26534580  0.41634847  0.86930858    -0.63100
O2415       O  0.31479411  0.33695531  0.77005026    -0.57900
O2416       O  0.29021250  0.38395325  0.83962647    -0.94600
O2417       O  0.29227050  0.35036123  0.81335750    -0.93000
O2418       O  0.35017727  0.41191830  0.78003064    -0.93400
O2419       O  0.33529342  0.44596507  0.81483939    -0.92200
C2420       C  0.29712910  0.36136104  0.83424437     1.16900
H2421       H  0.31300349  0.39766882  0.74248105     0.32800
H2422       H  0.28148437  0.46148961  0.81280284     0.43700
H2423       H  0.23893313  0.36361936  0.80794790     0.37200
H2424       H  0.21224729  0.43611119  0.74065653     0.33700
H2425       H  0.32020251  0.48733258  0.79100804     0.25500
H2426       H  0.19934486  0.49851625  0.78462840     0.31400
H2427       H  0.16878374  0.42368930  0.79553973     0.37300
H2428       H  0.36344889  0.42398395  0.77455011     0.31800
H2429       H  0.32839323  0.34400833  0.78088307     0.30600
H2430       H  0.24464130  0.33097724  0.75211849     0.32300
H2431       H  0.17434627  0.35515547  0.77759138     0.31300
H2432       H  0.32941712  0.43367339  0.82778922     0.35300
H2433       H  0.28389122  0.41853173  0.87155874     0.28000
H2434       H  0.25715685  0.41528987  0.67172949     0.32300
H2435       H  0.19877750  0.38522224  0.72231104     0.35100
H2436       H  0.30913964  0.32135172  0.77885159     0.27700
H2437       H  0.26158842  0.39947887  0.87666444     0.40600
H2438       H  0.27620326  0.50644629  0.76851031     0.30600
H2439       H  0.34374524  0.47873271  0.77498618     0.38300
H2440       H  0.20137022  0.34270687  0.77732023     0.30100
H2441       H  0.19853279  0.49283016  0.75554685     0.30200
H2442       H  0.23430498  0.39979755  0.68313925     0.30400
Zr2443     Zr  0.32395620  0.48863930  0.57411704     2.17500
O2444       O  0.33036804  0.48799238  0.62018785    -0.51900
O2445       O  0.34828668  0.45212795  0.58938976    -0.75100
O2446       O  0.28645076  0.48459837  0.59892237    -0.81900
O2447       O  0.38179986  0.53009390  0.56500224    -0.83600
O2448       O  0.25308303  0.47530250  0.57311733    -0.79300
O2449       O  0.35033221  0.52147759  0.59278151    -0.90900
O2450       O  0.35878696  0.42669318  0.55666995    -0.76900
O2451       O  0.30408698  0.45719389  0.54798738    -0.86400
O2452       O  0.35706009  0.47685328  0.54606562    -0.86100
O2453       O  0.28710403  0.50770039  0.55358846    -0.72800
O2454       O  0.33535075  0.52671944  0.55241386    -0.84900
Zr2455     Zr  0.31612889  0.50265496  0.47739920     2.26400
Zr2456     Zr  0.26853307  0.47670607  0.52535199     2.06300
Zr2457     Zr  0.36819938  0.51424501  0.52397977     2.10000
Zr2458     Zr  0.33780817  0.44524111  0.52036837     1.78800
O2459       O  0.40456603  0.54257030  0.52638515    -0.93700
O2460       O  0.31124536  0.40921158  0.53152235    -0.41600
O2461       O  0.35177996  0.48210460  0.49678182    -0.78200
O2462       O  0.30306653  0.46410753  0.49881457    -0.96900
O2463       O  0.28166244  0.51444866  0.50443470    -0.90200
O2464       O  0.33275477  0.53461666  0.50440840    -0.93000
C2465       C  0.36035475  0.43336738  0.57986249     1.00700
C2466       C  0.37143823  0.53202405  0.58687897     1.13700
C2467       C  0.26303140  0.47973053  0.59585064     1.04400
O2468       O  0.25077319  0.43427468  0.52335903    -0.95200
O2469       O  0.25672706  0.47822110  0.47502274    -0.90900
O2470       O  0.29287991  0.47449539  0.45261241    -0.84100
C2471       C  0.26899370  0.47577683  0.45283964     1.11100
O2472       O  0.25489258  0.55799210  0.53535769    -0.97200
Zr2473     Zr  0.29930147  0.54524785  0.53214879     1.88900
O2474       O  0.28286451  0.53290189  0.46645406    -0.73800
O2475       O  0.22474106  0.49144037  0.52640132    -0.53100
O2476       O  0.31722851  0.58760187  0.53451853    -0.97700
O2477       O  0.29608928  0.56372440  0.57433002    -0.55000
O2478       O  0.29215815  0.56554683  0.49183430    -0.74300
C2479       C  0.27929841  0.55556222  0.47406806     0.98000
O2480       O  0.32377763  0.49247756  0.43287656    -0.63100
O2481       O  0.40344020  0.48480445  0.51908802    -0.57900
O2482       O  0.34783866  0.52771126  0.45607728    -0.94600
O2483       O  0.37881201  0.53561374  0.48467581    -0.93000
O2484       O  0.37594925  0.42394428  0.50544441    -0.93400
O2485       O  0.33639722  0.42135318  0.48101243    -0.92200
C2486       C  0.36832573  0.53863718  0.46291310     1.16900
H2487       H  0.37241597  0.47144519  0.55424428     0.32800
H2488       H  0.29681240  0.45068614  0.48821087     0.43700
H2489       H  0.33704178  0.55036621  0.49612931     0.37200
H2490       H  0.27488479  0.51416927  0.56542000     0.33700
H2491       H  0.29727225  0.40959885  0.51894547     0.25500
H2492       H  0.22598770  0.51006150  0.52465415     0.31400
H2493       H  0.30231532  0.59902479  0.53506173     0.37300
H2494       H  0.37539447  0.40683301  0.51322050     0.31800
H2495       H  0.41095913  0.48932762  0.50249465     0.30600
H2496       H  0.39723516  0.55984613  0.52598367     0.32300
H2497       H  0.29948295  0.54947338  0.58615688     0.31300
H2498       H  0.33878214  0.43419705  0.46746770     0.35300
H2499       H  0.32099820  0.50820921  0.42292374     0.28000
H2500       H  0.32291727  0.47205103  0.62675120     0.32300
H2501       H  0.24715875  0.54605305  0.54762577     0.35100
H2502       H  0.41618297  0.49032016  0.53172339     0.27700
H2503       H  0.34207514  0.48846808  0.43123207     0.40600
H2504       H  0.24897607  0.43091733  0.50499788     0.30600
H2505       H  0.32148329  0.39423610  0.52685352     0.38300
H2506       H  0.27794205  0.56774485  0.57691526     0.30100
H2507       H  0.21736975  0.48582107  0.51011865     0.30200
H2508       H  0.31974951  0.50164728  0.62737891     0.30400
Zr2509     Zr  0.23491455  0.55314724  0.21944978     2.17500
O2510       O  0.25206370  0.56515372  0.17813055    -0.51900
O2511       O  0.20877149  0.51994467  0.20122099    -0.75100
O2512       O  0.26847403  0.53178042  0.20054904    -0.81900
O2513       O  0.19677747  0.61351227  0.22082733    -0.83600
O2514       O  0.26351510  0.49601146  0.22298069    -0.79300
O2515       O  0.20747944  0.58091038  0.19515435    -0.90900
O2516       O  0.17692629  0.51305061  0.22942231    -0.76900
O2517       O  0.22483703  0.51755297  0.24608739    -0.86400
O2518       O  0.19809754  0.56492240  0.24237389    -0.86100
O2519       O  0.27199267  0.54504936  0.24593736    -0.72800
O2520       O  0.24783677  0.59114086  0.23980929    -0.84900
Zr2521     Zr  0.23709388  0.56227362  0.31725268     2.26400
Zr2522     Zr  0.26117276  0.50946440  0.27228127     2.06300
Zr2523     Zr  0.21082749  0.60253492  0.26316948     2.10000
Zr2524     Zr  0.18890379  0.53076779  0.26975899     1.78800
O2525       O  0.22492755  0.64572933  0.25538217    -0.93700
O2526       O  0.18351013  0.48631918  0.28080771    -0.41600
O2527       O  0.19999425  0.56876883  0.29170978    -0.78200
O2528       O  0.22478694  0.52365711  0.29612535    -0.96900
O2529       O  0.27360950  0.54756293  0.29469429    -0.90200
O2530       O  0.24703561  0.59649142  0.28977508    -0.93000
C2531       C  0.18819425  0.50914521  0.20833051     1.00700
C2532       C  0.19517691  0.60120239  0.20002792     1.13700
C2533       C  0.26730840  0.50805263  0.20092250     1.04400
O2534       O  0.25601912  0.46370490  0.27304406    -0.95200
O2535       O  0.26029010  0.49516422  0.32091972    -0.90900
O2536       O  0.24798755  0.52827029  0.34555402    -0.84100
C2537       C  0.25476538  0.50515625  0.34342208     1.11100
O2538       O  0.31061954  0.58658293  0.23043898    -0.97200
Zr2539     Zr  0.28335237  0.58259861  0.26746902     1.88900
O2540       O  0.27059536  0.58659763  0.33804166    -0.73800
O2541       O  0.30632314  0.49985445  0.27477848    -0.53100
O2542       O  0.32645631  0.56803745  0.27593776    -0.97700
O2543       O  0.29138384  0.62700851  0.25757122    -0.55000
O2544       O  0.29641678  0.60100183  0.30695854    -0.74300
C2545       C  0.28909285  0.60028165  0.33004561     0.98000
O2546       O  0.21552074  0.55373480  0.35727102    -0.63100
O2547       O  0.16596875  0.61340997  0.26631785    -0.57900
O2548       O  0.21221703  0.59770207  0.33266909    -0.94600
O2549       O  0.20064113  0.62490269  0.30111234    -0.93000
O2550       O  0.14469247  0.54098695  0.26079388    -0.93400
O2551       O  0.16124536  0.52782278  0.30660033    -0.92200
C2552       C  0.20195567  0.61813558  0.32431575     1.16900
H2553       H  0.18311177  0.56722984  0.23207025     0.32800
H2554       H  0.21932831  0.51110764  0.30829133     0.43700
H2555       H  0.25025469  0.61198975  0.29882444     0.37200
H2556       H  0.28750102  0.54058938  0.23736157     0.33700
H2557       H  0.16563081  0.48254607  0.27644761     0.25500
H2558       H  0.30943382  0.48845852  0.26029396     0.31400
H2559       H  0.32594927  0.56092612  0.29333978     0.37300
H2560       H  0.14343832  0.55946664  0.26339007     0.31800
H2561       H  0.16493073  0.63128770  0.26068506     0.30600
H2562       H  0.20913557  0.65536860  0.25195359     0.32300
H2563       H  0.28526455  0.63646637  0.27251167     0.31300
H2564       H  0.16632864  0.54200884  0.31766843     0.35300
H2565       H  0.22062431  0.56739224  0.36899684     0.28000
H2566       H  0.25301855  0.58386635  0.17807120     0.32300
H2567       H  0.29946356  0.58263676  0.21585977     0.35100
H2568       H  0.15755789  0.60380651  0.25262028     0.27700
H2569       H  0.19722475  0.55655943  0.35396271     0.40600
H2570       H  0.23831275  0.46106084  0.27868227     0.30600
H2571       H  0.19353889  0.47715375  0.26797286     0.38300
H2572       H  0.27912049  0.63135637  0.24397887     0.30100
H2573       H  0.31486180  0.51585343  0.27000310     0.30200
H2574       H  0.23891075  0.56086832  0.16542155     0.30400
Zr2575     Zr  0.17189263  0.49108669  0.07193714     2.17500
O2576       O  0.17413960  0.49015522  0.11821115    -0.51900
O2577       O  0.14526952  0.52649209  0.08698939    -0.75100
O2578       O  0.20954266  0.49459334  0.09795682    -0.81900
O2579       O  0.11087388  0.45290834  0.06018945    -0.83600
O2580       O  0.24353166  0.50094236  0.07205846    -0.79300
O2581       O  0.14225470  0.45978105  0.08879772    -0.90900
O2582       O  0.13720072  0.55406640  0.05495464    -0.76900
O2583       O  0.19200006  0.52328889  0.04685432    -0.86400
O2584       O  0.13921035  0.50373131  0.04338288    -0.86100
O2585       O  0.20790189  0.47138282  0.05092121    -0.72800
O2586       O  0.16038974  0.45365773  0.04918702    -0.84900
Zr2587     Zr  0.18079315  0.48133515  0.97434470     2.26400
Zr2588     Zr  0.22754526  0.50369125  0.02472799     2.06300
Zr2589     Zr  0.12807026  0.46720076  0.01997201     2.10000
Zr2590     Zr  0.15857544  0.53640532  0.01889589     1.78800
O2591       O  0.10796404  0.42588191  0.01629833    -0.93700
O2592       O  0.18455640  0.57339345  0.02811504    -0.41600
O2593       O  0.14513180  0.50062583  0.99434501    -0.78200
O2594       O  0.19385552  0.51848702  0.99771554    -0.96900
O2595       O  0.21416176  0.46732370  0.00209196    -0.90200
O2596       O  0.16307200  0.44792737  0.99934653    -0.93000
C2597       C  0.13425340  0.54630067  0.07771796     1.00700
C2598       C  0.12082532  0.45025822  0.08225837     1.13700
C2599       C  0.23348910  0.49708041  0.09479003     1.04400
O2600       O  0.24321383  0.54697925  0.02519355    -0.95200
O2601       O  0.24125480  0.50166706  0.97545590    -0.90900
O2602       O  0.20650264  0.50984701  0.95220138    -0.84100
C2603       C  0.23006009  0.50571627  0.95297842     1.11100
O2604       O  0.20158326  0.41135005  0.06688532    -0.97200
Zr2605     Zr  0.19537967  0.43498673  0.02750834     1.88900
O2606       O  0.21414650  0.45198569  0.96241917    -0.73800
O2607       O  0.27254777  0.49338945  0.02561014    -0.53100
O2608       O  0.23727052  0.41612328  0.03276223    -0.97700
O2609       O  0.16942167  0.39687220  0.02594070    -0.55000
O2610       O  0.20495945  0.41784219  0.98609501    -0.74300
C2611       C  0.21851516  0.42926994  0.96963147     0.98000
O2612       O  0.17259445  0.49400877  0.93045966    -0.63100
O2613       O  0.08678296  0.48811469  0.01988700    -0.57900
O2614       O  0.14910467  0.45642803  0.95333380    -0.94600
O2615       O  0.11382978  0.46248948  0.97638696    -0.93000
O2616       O  0.11865209  0.55644426  0.00684379    -0.93400
O2617       O  0.15773092  0.55900751  0.97846921    -0.92200
C2618       C  0.12577142  0.45205294  0.95804954     1.16900
H2619       H  0.12354788  0.50873108  0.05134389     0.32800
H2620       H  0.20052216  0.53241083  0.98785322     0.43700
H2621       H  0.15794880  0.43297725  0.99023926     0.37200
H2622       H  0.21970406  0.46417257  0.06291433     0.33700
H2623       H  0.18476389  0.58345706  0.01222992     0.25500
H2624       H  0.27311597  0.47509935  0.02182360     0.31400
H2625       H  0.24888451  0.43074272  0.03419295     0.37300
H2626       H  0.10902778  0.54299910  0.99806682     0.31800
H2627       H  0.07453613  0.47458347  0.01566955     0.30600
H2628       H  0.08954084  0.42920296  0.01793178     0.32300
H2629       H  0.15899676  0.39732464  0.04152075     0.31300
H2630       H  0.15339781  0.54595159  0.96578753     0.35300
H2631       H  0.17591891  0.47889246  0.91996043     0.28000
H2632       H  0.17118659  0.47240454  0.12347804     0.32300
H2633       H  0.20091093  0.42425325  0.08038630     0.35100
H2634       H  0.08327410  0.49204320  0.03785982     0.27700
H2635       H  0.15411670  0.49719377  0.92906849     0.40600
H2636       H  0.25250863  0.54832654  0.04147286     0.30600
H2637       H  0.17438680  0.58366817  0.03999382     0.38300
H2638       H  0.18146802  0.38270072  0.02869603     0.30100
H2639       H  0.27968486  0.50171487  0.01035178     0.30200
H2640       H  0.15891334  0.49932663  0.12412302     0.30400
Zr2641     Zr  0.03414341  0.18305786  0.32492507     2.17500
O2642       O  0.05778139  0.22289168  0.32365477    -0.51900
O2643       O  0.07820312  0.17289881  0.31751972    -0.75100
O2644       O  0.04436186  0.20342112  0.36388560    -0.81900
O2645       O  0.00094200  0.19093339  0.26138495    -0.83600
O2646       O  0.02949161  0.18167313  0.39769876    -0.79300
O2647       O  0.02177450  0.21272379  0.29198763    -0.90900
O2648       O  0.08352168  0.13744284  0.34027084    -0.76900
O2649       O  0.04067627  0.14985591  0.35489608    -0.86400
O2650       O  0.03984086  0.14709058  0.29819513    -0.86100
O2651       O  0.99764919  0.18254399  0.35251335    -0.72800
O2652       O  0.99563451  0.17797580  0.30221217    -0.84900
Zr2653     Zr  0.97031540  0.10683809  0.33115877     2.26400
Zr2654     Zr  0.00362624  0.14726784  0.38086869     2.06300
Zr2655     Zr  0.00041796  0.14287822  0.27492163     2.10000
Zr2656     Zr  0.04593726  0.11377163  0.32911614     1.78800
O2657       O  0.96661233  0.14102947  0.24345170    -0.93700
O2658       O  0.06733865  0.08877812  0.36198865    -0.41600
O2659       O  0.00737548  0.11092573  0.30600071    -0.78200
O2660       O  0.00893658  0.10970675  0.35594716    -0.96900
O2661       O  0.96523504  0.14330793  0.35689579    -0.90200
O2662       O  0.96331406  0.14074123  0.30146402    -0.93000
C2663       C  0.09126298  0.15899817  0.33249326     1.00700
C2664       C  0.00971410  0.21234136  0.27093893     1.13700
C2665       C  0.04181439  0.20017126  0.38771570     1.04400
O2666       O  0.02764412  0.11815620  0.40774372    -0.95200
O2667       O  0.96490774  0.12788893  0.39776820    -0.90900
O2668       O  0.96538378  0.09287253  0.37468329    -0.84100
C2669       C  0.95552464  0.10628625  0.39213550     1.11100
O2670       O  0.96081802  0.22328445  0.32718026    -0.97200
Zr2671     Zr  0.95930630  0.17725135  0.32845007     1.88900
O2672       O  0.92511858  0.11534658  0.32456474    -0.73800
O2673       O  0.99009034  0.16779640  0.41981626    -0.53100
O2674       O  0.93993471  0.19364272  0.36695362    -0.97700
O2675       O  0.93420622  0.19703320  0.29498456    -0.55000
O2676       O  0.91846509  0.15738222  0.32936410    -0.74300
C2677       C  0.91055482  0.13482085  0.32614651     0.98000
O2678       O  0.94947865  0.06561238  0.33169851    -0.63100
O2679       O  0.02888810  0.14082340  0.23870459    -0.57900
O2680       O  0.98220277  0.07400663  0.30117454    -0.94600
O2681       O  0.99971573  0.09392711  0.26701213    -0.93000
O2682       O  0.07066344  0.10178764  0.29211568    -0.93400
O2683       O  0.04788898  0.06788030  0.32807783    -0.92200
C2684       C  0.99285298  0.07313093  0.27932044     1.16900
H2685       H  0.05395276  0.14883549  0.28666586     0.32800
H2686       H  0.01102048  0.09497098  0.36666347     0.43700
H2687       H  0.94850207  0.13827428  0.29095635     0.37200
H2688       H  0.99622419  0.19814544  0.36185951     0.33700
H2689       H  0.08234270  0.09855907  0.36740473     0.25500
H2690       H  0.97273186  0.17410687  0.41625877     0.31400
H2691       H  0.92497716  0.18280339  0.37024865     0.37300
H2692       H  0.08448608  0.09098621  0.29893464     0.31800
H2693       H  0.03646198  0.15791681  0.23755047     0.30600
H2694       H  0.97273920  0.15173390  0.22926765     0.32300
H2695       H  0.91736916  0.20028316  0.30261052     0.31300
H2696       H  0.03321364  0.06230389  0.33840551     0.35300
H2697       H  0.96012291  0.05470014  0.34277923     0.28000
H2698       H  0.06551411  0.22417436  0.30660761     0.32300
H2699       H  0.97746649  0.22730752  0.31949810     0.35100
H2700       H  0.04300258  0.12973751  0.24437333     0.27700
H2701       H  0.93356894  0.06802587  0.34130569     0.40600
H2702       H  0.02182297  0.12172302  0.42518010     0.30600
H2703       H  0.05587734  0.08911515  0.37680674     0.38300
H2704       H  0.93120075  0.18343371  0.28253106     0.30100
H2705       H  0.98783509  0.15405736  0.43245833     0.30200
H2706       H  0.04520269  0.23683581  0.32445426     0.30400
Zr2707     Zr  0.93968535  0.85704335  0.22645106     2.17500
O2708       O  0.94505485  0.81768032  0.20294946    -0.51900
O2709       O  0.94715932  0.86841227  0.18188321    -0.75100
O2710       O  0.89752810  0.84164023  0.21629579    -0.81900
O2711       O  0.00150578  0.84459286  0.25991033    -0.83600
O2712       O  0.87229772  0.87551443  0.21789091    -0.79300
O2713       O  0.96970097  0.82426143  0.23902758    -0.90900
O2714       O  0.93880810  0.91017253  0.17671076    -0.76900
O2715       O  0.91234291  0.89250388  0.22161856    -0.86400
O2716       O  0.96786292  0.89242095  0.22253644    -0.86100
O2717       O  0.91325652  0.85638872  0.26404315    -0.72800
O2718       O  0.96225250  0.86011228  0.26553934    -0.84900
Zr2719     Zr  0.93772756  0.93186427  0.29283577     2.26400
Zr2720     Zr  0.88646279  0.89288693  0.25865600     2.06300
Zr2721     Zr  0.99184739  0.89361618  0.26157902     2.10000
Zr2722     Zr  0.93912489  0.92798777  0.21835517     1.78800
O2723       O  0.02469582  0.89363141  0.29416941    -0.93700
O2724       O  0.90453129  0.94853410  0.19526953    -0.41600
O2725       O  0.96273575  0.92735168  0.25614629    -0.78200
O2726       O  0.91201654  0.93031336  0.25496211    -0.96900
O2727       O  0.90983542  0.89672903  0.29740109    -0.90200
O2728       O  0.96630512  0.89711195  0.29945195    -0.93000
C2729       C  0.94381912  0.88827248  0.16800314     1.00700
C2730       C  0.99069998  0.82363145  0.25134419     1.13700
C2731       C  0.87947298  0.85503366  0.20701614     1.04400
O2732       O  0.84661544  0.91161912  0.24438823    -0.95200
O2733       O  0.86722704  0.92288579  0.28762169    -0.90900
O2734       O  0.89702982  0.95015694  0.30184904    -0.84100
C2735       C  0.87410041  0.94261082  0.30001626     1.11100
O2736       O  0.91143942  0.82395794  0.30567490    -0.97200
Zr2737     Zr  0.93753764  0.86195205  0.30316650     1.88900
O2738       O  0.94436641  0.91936001  0.33615678    -0.73800
O2739       O  0.86005576  0.86113857  0.27927796    -0.53100
O2740       O  0.94078639  0.83064254  0.33719436    -0.97700
O2741       O  0.97924921  0.84881797  0.31888740    -0.55000
O2742       O  0.91925139  0.88578876  0.33824163    -0.74300
C2743       C  0.92726233  0.90667053  0.34738604     0.98000
O2744       O  0.93859892  0.97037530  0.31830203    -0.63100
O2745       O  0.02681331  0.89315038  0.23150974    -0.57900
O2746       O  0.96886302  0.96316800  0.28037321    -0.94600
O2747       O  0.00230966  0.94230220  0.26287711    -0.93000
O2748       O  0.97684915  0.94814710  0.20094959    -0.93400
O2749       O  0.93617010  0.97377249  0.22216027    -0.92200
C2750       C  0.99080817  0.96340172  0.27007688     1.16900
H2751       H  0.97924516  0.89108976  0.20828925     0.32800
H2752       H  0.90130221  0.94509766  0.25341986     0.43700
H2753       H  0.97733250  0.89918687  0.31399098     0.37200
H2754       H  0.90325397  0.84123758  0.26423862     0.33700
H2755       H  0.90980346  0.94898982  0.17726676     0.25500
H2756       H  0.85814986  0.86728354  0.29687795     0.31400
H2757       H  0.93448347  0.83933730  0.35252225     0.37300
H2758       H  0.97829878  0.94160131  0.18347754     0.31800
H2759       H  0.02726722  0.91056874  0.22449772     0.30600
H2760       H  0.03670104  0.90698339  0.28873007     0.32300
H2761       H  0.98224003  0.85885421  0.33439768     0.31300
H2762       H  0.93399780  0.97687005  0.24052475     0.35300
H2763       H  0.95603779  0.97191257  0.32516433     0.28000
H2764       H  0.96005186  0.82041572  0.19198525     0.32300
H2765       H  0.89525186  0.82974253  0.31323512     0.35100
H2766       H  0.04228296  0.89182265  0.24212632     0.27700
H2767       H  0.93646878  0.98484735  0.30644030     0.40600
H2768       H  0.85156174  0.92353280  0.23070633     0.30600
H2769       H  0.89042856  0.93620810  0.19587679     0.38300
H2770       H  0.99190285  0.85518200  0.30660573     0.30100
H2771       H  0.84305524  0.86349178  0.27157901     0.30200
H2772       H  0.93072626  0.81703095  0.19084687     0.30400
Zr2773     Zr  0.03356204  0.59969136  0.19388349     2.17500
O2774       O  0.03897607  0.55388538  0.19684543    -0.51900
O2775       O  0.07941090  0.60469883  0.19506070    -0.75100
O2776       O  0.04516530  0.58094448  0.15375165    -0.81900
O2777       O  0.99933605  0.59428651  0.25243808    -0.83600
O2778       O  0.04073996  0.61242035  0.12499007    -0.79300
O2779       O  0.03178537  0.57507268  0.23250681    -0.90900
O2780       O  0.08544519  0.64241818  0.17607236    -0.76900
O2781       O  0.04251278  0.63321237  0.16530720    -0.86400
O2782       O  0.04336440  0.63479868  0.22071944    -0.86100
O2783       O  0.99525492  0.60308424  0.16888790    -0.72800
O2784       O  0.99587714  0.60974056  0.21678013    -0.84900
Zr2785     Zr  0.97761114  0.68275500  0.19011961     2.26400
Zr2786     Zr  0.00486441  0.63742293  0.14045206     2.06300
Zr2787     Zr  0.00518103  0.64322662  0.24503700     2.10000
Zr2788     Zr  0.05118296  0.66862719  0.19109637     1.78800
O2789       O  0.97506867  0.64562260  0.27988805    -0.93700
O2790       O  0.05463943  0.70784124  0.16633629    -0.41600
O2791       O  0.01447593  0.67629989  0.21553283    -0.78200
O2792       O  0.01455699  0.67503398  0.16414489    -0.96900
O2793       O  0.96777164  0.64747962  0.16419727    -0.90200
O2794       O  0.96736043  0.65011716  0.22004886    -0.93000
C2795       C  0.09351661  0.62086914  0.18366503     1.00700
C2796       C  0.01197739  0.57357337  0.24625903     1.13700
C2797       C  0.05051755  0.59134075  0.13248841     1.04400
O2798       O  0.01905207  0.64942948  0.09818223    -0.95200
O2799       O  0.98253759  0.67204917  0.11935455    -0.90900
O2800       O  0.97210590  0.70127986  0.14884024    -0.84100
C2801       C  0.97357506  0.69366838  0.12597175     1.11100
O2802       O  0.94670650  0.57302629  0.20984154    -0.97200
Zr2803     Zr  0.95790150  0.61466020  0.19311611     1.88900
O2804       O  0.93264244  0.67743740  0.19655472    -0.73800
O2805       O  0.97817450  0.60771939  0.11752163    -0.53100
O2806       O  0.94154277  0.58899266  0.15850747    -0.97700
O2807       O  0.92607931  0.61033449  0.22634763    -0.55000
O2808       O  0.92450935  0.64157589  0.17601462    -0.74300
C2809       C  0.91912668  0.66453451  0.18136359     0.98000
O2810       O  0.95727680  0.72428873  0.18642568    -0.63100
O2811       O  0.03613876  0.63882352  0.27915477    -0.57900
O2812       O  0.99005434  0.71363598  0.22123800    -0.94600
O2813       O  0.00563678  0.69210582  0.25531901    -0.93000
O2814       O  0.05924282  0.68563732  0.23323196    -0.93400
O2815       O  0.09338735  0.68760001  0.19283435    -0.92200
C2816       C  0.99969251  0.71354293  0.24345729     1.16900
H2817       H  0.05782958  0.63126382  0.23146913     0.32800
H2818       H  0.01729407  0.68876724  0.15235405     0.43700
H2819       H  0.95342618  0.65460182  0.23101120     0.37200
H2820       H  0.99250203  0.58746792  0.15987564     0.33700
H2821       H  0.06324816  0.72036592  0.17722270     0.25500
H2822       H  0.97109292  0.61775154  0.10324970     0.31400
H2823       H  0.93495432  0.60132207  0.14590764     0.37300
H2824       H  0.07127011  0.67374610  0.24148352     0.31800
H2825       H  0.02585464  0.63755974  0.29479474     0.30600
H2826       H  0.98038185  0.66063544  0.28968786     0.32300
H2827       H  0.91584205  0.62603515  0.22540950     0.31300
H2828       H  0.10195840  0.67973946  0.20763661     0.35300
H2829       H  0.94851122  0.72747363  0.20268817     0.28000
H2830       H  0.05648720  0.55040449  0.19105845     0.32300
H2831       H  0.95015767  0.56087655  0.19607997     0.35100
H2832       H  0.04329158  0.62163003  0.27698724     0.27700
H2833       H  0.97095150  0.73710199  0.18537819     0.40600
H2834       H  0.03394365  0.66043646  0.10112995     0.30600
H2835       H  0.06695017  0.70405008  0.15270376     0.38300
H2836       H  0.93567190  0.61171869  0.24245071     0.30100
H2837       H  0.99026927  0.59588060  0.10947913     0.30200
H2838       H  0.02777614  0.54664450  0.18366173     0.30400
Zr2839     Zr  0.05932325  0.43012473  0.21794396     2.17500
O2840       O  0.05408208  0.47053444  0.19585780    -0.51900
O2841       O  0.05149526  0.41641407  0.17518774    -0.75100
O2842       O  0.10052079  0.44526193  0.20466693    -0.81900
O2843       O  0.99863775  0.44214501  0.25349190    -0.83600
O2844       O  0.12889209  0.41472054  0.21525794    -0.79300
O2845       O  0.02826133  0.46225451  0.22920333    -0.90900
O2846       O  0.07447930  0.38102535  0.17401589    -0.76900
O2847       O  0.08678304  0.39454599  0.21474082    -0.86400
O2848       O  0.03021075  0.39527421  0.21529344    -0.86100
O2849       O  0.08697827  0.43069845  0.25453809    -0.72800
O2850       O  0.03665220  0.42657686  0.25603847    -0.84900
Zr2851     Zr  0.06112099  0.35857622  0.28916342     2.26400
Zr2852     Zr  0.11234296  0.39284530  0.25236215     2.06300
Zr2853     Zr  0.00780832  0.39271063  0.25510689     2.10000
Zr2854     Zr  0.05877933  0.35988233  0.21231819     1.78800
O2855       O  0.97658057  0.39121861  0.28920569    -0.93700
O2856       O  0.09250038  0.33165846  0.19751789    -0.41600
O2857       O  0.03904793  0.36288959  0.25142173    -0.78200
O2858       O  0.08512900  0.35641762  0.25009228    -0.96900
O2859       O  0.08837046  0.39428337  0.29062285    -0.90200
O2860       O  0.03333589  0.39407120  0.29301133    -0.93000
C2861       C  0.06692711  0.40183398  0.16386320     1.00700
C2862       C  0.00835604  0.46302097  0.24315336     1.13700
C2863       C  0.12251093  0.43501795  0.20325642     1.04400
O2864       O  0.14170737  0.36043311  0.23777516    -0.95200
O2865       O  0.12910770  0.37481821  0.29213034    -0.90900
O2866       O  0.10340027  0.34151140  0.29472075    -0.84100
C2867       C  0.12220503  0.35417283  0.30308040     1.11100
O2868       O  0.06227108  0.47577203  0.28566417    -0.97200
Zr2869     Zr  0.06169972  0.43012072  0.29244541     1.88900
O2870       O  0.05784163  0.37317325  0.33337023    -0.73800
O2871       O  0.14836418  0.41872984  0.26531224    -0.53100
O2872       O  0.09768204  0.44996034  0.31345938    -0.97700
O2873       O  0.02383539  0.45099259  0.30849715    -0.55000
O2874       O  0.06362685  0.41563300  0.33512746    -0.74300
C2875       C  0.06030806  0.39411453  0.34551635     0.98000
O2876       O  0.06648731  0.32215632  0.31777817    -0.63100
O2877       O  0.96973553  0.39315818  0.22866088    -0.57900
O2878       O  0.02787145  0.32693303  0.28577655    -0.94600
O2879       O  0.00256725  0.34304278  0.25488659    -0.93000
O2880       O  0.04562740  0.31653018  0.20414105    -0.93400
O2881       O  0.02236638  0.35276465  0.18454233    -0.92200
C2882       C  0.01192779  0.32355744  0.26780887     1.16900
H2883       H  0.01841126  0.39688431  0.20135191     0.32800
H2884       H  0.09505397  0.34108875  0.24931965     0.43700
H2885       H  0.02286272  0.39330369  0.30797097     0.37200
H2886       H  0.09764309  0.44555843  0.25436928     0.33700
H2887       H  0.10816429  0.34197879  0.19813122     0.25500
H2888       H  0.16303019  0.41189363  0.25583954     0.31400
H2889       H  0.09008648  0.46080131  0.32668809     0.37300
H2890       H  0.02924041  0.31458245  0.21304367     0.31800
H2891       H  0.96419786  0.37527978  0.22816277     0.30600
H2892       H  0.97202351  0.40915225  0.29219506     0.32300
H2893       H  0.02954149  0.46053769  0.32352424     0.31300
H2894       H  0.02894008  0.35521183  0.16712861     0.35300
H2895       H  0.05095003  0.32122986  0.32824397     0.28000
H2896       H  0.05965629  0.46743874  0.17825386     0.32300
H2897       H  0.06111495  0.47802405  0.26705340     0.35100
H2898       H  0.95667984  0.40175541  0.23902446     0.27700
H2899       H  0.06620296  0.30673450  0.30726301     0.40600
H2900       H  0.15529370  0.36991988  0.22895341     0.30600
H2901       H  0.09489048  0.31871921  0.21096627     0.38300
H2902       H  0.01292557  0.43734310  0.31528636     0.30100
H2903       H  0.14531318  0.43567407  0.25777552     0.30200
H2904       H  0.06713867  0.48191400  0.20304781     0.30400
Zr2905     Zr  0.92869763  0.33015545  0.49947361     2.17500
O2906       O  0.88261873  0.33635983  0.49959411    -0.51900
O2907       O  0.91165403  0.35243686  0.53612320    -0.75100
O2908       O  0.90443429  0.29189902  0.50269689    -0.81900
O2909       O  0.93347582  0.39298989  0.46723887    -0.83600
O2910       O  0.93154710  0.25963548  0.51229204    -0.79300
O2911       O  0.91104412  0.35674492  0.46629106    -0.90900
O2912       O  0.94322645  0.36293575  0.56318001    -0.76900
O2913       O  0.95526605  0.31229930  0.53196471    -0.86400
O2914       O  0.95486977  0.36459771  0.51158146    -0.86100
O2915       O  0.95088433  0.29449426  0.48083248    -0.72800
O2916       O  0.95000560  0.34227526  0.46116996    -0.84900
Zr2917     Zr  0.02552717  0.32855577  0.48741571     2.26400
Zr2918     Zr  0.97892688  0.27764013  0.51320789     2.06300
Zr2919     Zr  0.97637757  0.37701209  0.47389663     2.10000
Zr2920     Zr  0.98162302  0.34715026  0.54379505     1.78800
O2921       O  0.96912454  0.40423051  0.43709607    -0.93700
O2922       O  0.97854669  0.32267688  0.58296962    -0.41600
O2923       O  0.00400159  0.36272573  0.50706903    -0.78200
O2924       O  0.00466692  0.31337380  0.52512939    -0.96900
O2925       O  0.00067311  0.29239183  0.47635909    -0.90200
O2926       O  0.99806489  0.34250106  0.45438342    -0.93000
C2927       C  0.91994512  0.36316655  0.55624265     1.00700
C2928       C  0.91331450  0.38049880  0.46206538     1.13700
C2929       C  0.90833047  0.26849508  0.50722615     1.04400
O2930       O  0.97979833  0.26440088  0.55746958    -0.95200
O2931       O  0.02871680  0.26607908  0.51491829    -0.90900
O2932       O  0.05333288  0.30095892  0.50802273    -0.84100
C2933       C  0.05125008  0.27776290  0.51375201     1.11100
O2934       O  0.93368187  0.29904572  0.42147892    -0.97200
Zr2935     Zr  0.97328313  0.30716290  0.44391275     1.88900
O2936       O  0.04470943  0.29994527  0.45784658    -0.73800
O2937       O  0.98220529  0.23321116  0.50169383    -0.53100
O2938       O  0.96730312  0.26305202  0.43218555    -0.97700
O2939       O  0.97761887  0.32653240  0.40207301    -0.55000
O2940       O  0.01380859  0.29094281  0.42916726    -0.74300
C2941       C  0.03627142  0.28850692  0.43835754     0.98000
O2942       O  0.06319685  0.34670740  0.50714753    -0.63100
O2943       O  0.98379714  0.41544023  0.49818770    -0.57900
O2944       O  0.04525191  0.35927552  0.45977532    -0.94600
O2945       O  0.01583683  0.38987351  0.45359572    -0.93000
O2946       O  0.99219466  0.38837691  0.56125942    -0.93400
O2947       O  0.02224742  0.34938708  0.56584713    -0.92200
C2948       C  0.03742919  0.37951730  0.44890437     1.16900
H2949       H  0.94547668  0.37921421  0.51724605     0.32800
H2950       H  0.01691119  0.30789201  0.53767488     0.43700
H2951       H  0.00613479  0.34677680  0.43856896     0.37200
H2952       H  0.93964414  0.28190513  0.47403164     0.33700
H2953       H  0.97637951  0.33550848  0.59638711     0.25500
H2954       H  0.97492535  0.22389619  0.51630646     0.31400
H2955       H  0.97374156  0.26189140  0.41460726     0.37300
H2956       H  0.98520908  0.38811236  0.57866962     0.31800
H2957       H  0.99626077  0.41070298  0.51147076     0.30600
H2958       H  0.97683320  0.42070585  0.44152013     0.32300
H2959       H  0.96529855  0.34069486  0.40198602     0.31300
H2960       H  0.03462222  0.35423311  0.55258075     0.35300
H2961       H  0.07712617  0.34433856  0.49479724     0.28000
H2962       H  0.87597663  0.32772914  0.48439408     0.32300
H2963       H  0.92501977  0.31565798  0.42075712     0.35100
H2964       H  0.99336819  0.42667489  0.48657312     0.27700
H2965       H  0.06013836  0.36519289  0.50738478     0.40600
H2966       H  0.99044884  0.24894305  0.55766607     0.30600
H2967       H  0.96190987  0.31405815  0.58205847     0.38300
H2968       H  0.97047504  0.31404064  0.39010309     0.30100
H2969       H  0.96962923  0.23105174  0.48790996     0.30200
H2970       H  0.87561362  0.32680006  0.51418909     0.30400
Zr2971     Zr  0.68093463  0.24428204  0.57953086     2.17500
O2972       O  0.63493574  0.23767118  0.58007617    -0.51900
O2973       O  0.66914746  0.20783382  0.60605313    -0.75100
O2974       O  0.65510639  0.24211538  0.54175886    -0.81900
O2975       O  0.68928401  0.28252870  0.63994577    -0.83600
O2976       O  0.68119234  0.23825303  0.50760412    -0.79300
O2977       O  0.66158120  0.27474966  0.60804126    -0.90900
O2978       O  0.70257690  0.18137399  0.61142702    -0.76900
O2979       O  0.70892004  0.21476011  0.55930034    -0.86400
O2980       O  0.71043170  0.23367494  0.61213653    -0.86100
O2981       O  0.70015099  0.26649073  0.54400555    -0.72800
O2982       O  0.70037290  0.28334141  0.59185078    -0.84900
Zr2983     Zr  0.77693976  0.26495894  0.57065309     2.26400
Zr2984     Zr  0.72907173  0.23705040  0.52393647     2.06300
Zr2985     Zr  0.73094886  0.27175810  0.62368485     2.10000
Zr2986     Zr  0.73812913  0.20406691  0.59276202     1.78800
O2987       O  0.72758419  0.30214372  0.65805471    -0.93700
O2988       O  0.73938370  0.16488709  0.56866928    -0.41600
O2989       O  0.76010045  0.24190945  0.60607158    -0.78200
O2990       O  0.75751693  0.22532277  0.55792966    -0.96900
O2991       O  0.74766357  0.27569449  0.53759017    -0.90200
O2992       O  0.74853292  0.29474472  0.58889438    -0.93000
C2993       C  0.67965990  0.18811069  0.61590020     1.00700
C2994       C  0.66722106  0.28400932  0.62979602     1.13700
C2995       C  0.65823857  0.24098254  0.51777213     1.04400
O2996       O  0.72891409  0.19411499  0.50753814    -0.95200
O2997       O  0.77892450  0.23828624  0.51088964    -0.90900
O2998       O  0.80282105  0.23869955  0.54653192    -0.84100
C2999       C  0.80151419  0.23737147  0.52270593     1.11100
O3000       O  0.67764898  0.32388231  0.54985253    -0.97200
Zr3001     Zr  0.71928405  0.30492906  0.55679042     1.88900
O3002       O  0.78414573  0.29417252  0.53552252    -0.73800
O3003       O  0.73030425  0.25080140  0.47974845    -0.53100
O3004       O  0.71281604  0.32247341  0.51449208    -0.97700
O3005       O  0.71374689  0.34304250  0.58201093    -0.55000
O3006       O  0.75892256  0.32604723  0.54715610    -0.74300
C3007       C  0.77525019  0.31646513  0.53220564     0.98000
O3008       O  0.82202080  0.26595165  0.58185899    -0.63100
O3009       O  0.73937397  0.24368279  0.65956468    -0.57900
O3010       O  0.79814617  0.29039420  0.60205599    -0.94600
O3011       O  0.76978591  0.29418405  0.63390107    -0.93000
O3012       O  0.74860652  0.19025870  0.63567931    -0.93400
O3013       O  0.77891235  0.18223052  0.59470765    -0.92200
C3014       C  0.79092033  0.29972417  0.62311868     1.16900
H3015       H  0.70301550  0.22760952  0.62770342     0.32800
H3016       H  0.76886660  0.21256543  0.55139469     0.43700
H3017       H  0.75595927  0.31075990  0.59346302     0.37200
H3018       H  0.68788068  0.27355867  0.53243957     0.33700
H3019       H  0.73539790  0.15145420  0.58120684     0.25500
H3020       H  0.74490617  0.24165365  0.47236246     0.31400
H3021       H  0.71002531  0.30755380  0.50358727     0.37300
H3022       H  0.76444549  0.19930840  0.64002416     0.31800
H3023       H  0.74851832  0.25437379  0.67192210     0.30600
H3024       H  0.72486523  0.31867991  0.64951394     0.32300
H3025       H  0.73079996  0.35081391  0.58289063     0.31300
H3026       H  0.79142622  0.19470512  0.58838676     0.35300
H3027       H  0.82693738  0.24837413  0.58631208     0.28000
H3028       H  0.62964006  0.23969466  0.59794953     0.32300
H3029       H  0.66811336  0.32021803  0.56560749     0.35100
H3030       H  0.72256175  0.24078682  0.66740578     0.27700
H3031       H  0.83150626  0.27015588  0.56619328     0.40600
H3032       H  0.71070012  0.18994361  0.50557764     0.30600
H3033       H  0.72428708  0.16564034  0.55750960     0.38300
H3034       H  0.71052965  0.33673319  0.59942395     0.30100
H3035       H  0.71527635  0.24296510  0.47171817     0.30200
H3036       H  0.63212165  0.21946755  0.57662027     0.30400
Zr3037     Zr  0.43003451  0.17171291  0.49825623     2.17500
O3038       O  0.38354928  0.17109033  0.49638430    -0.51900
O3039       O  0.41543699  0.14852034  0.46091429    -0.75100
O3040       O  0.40425201  0.20954279  0.49618811    -0.81900
O3041       O  0.43825116  0.10896443  0.53247696    -0.83600
O3042       O  0.43054044  0.24328317  0.49081571    -0.79300
O3043       O  0.41264054  0.14325086  0.53018742    -0.90900
O3044       O  0.44880107  0.14086326  0.43527049    -0.76900
O3045       O  0.45698561  0.19198963  0.46761237    -0.86400
O3046       O  0.45854878  0.13858158  0.48661782    -0.86100
O3047       O  0.45033478  0.20696306  0.51934926    -0.72800
O3048       O  0.45092704  0.15862066  0.53661897    -0.84900
Zr3049     Zr  0.52654063  0.17649416  0.51423028     2.26400
Zr3050     Zr  0.47864398  0.22660658  0.48899702     2.06300
Zr3051     Zr  0.47996840  0.12584524  0.52455981     2.10000
Zr3052     Zr  0.48530548  0.15852573  0.45595802     1.78800
O3053       O  0.47256660  0.09541822  0.55859672    -0.93700
O3054       O  0.48552034  0.18907514  0.42117862    -0.41600
O3055       O  0.50728438  0.14216094  0.49256411    -0.78200
O3056       O  0.50667513  0.19259732  0.47615770    -0.96900
O3057       O  0.49951200  0.21088429  0.52613313    -0.90200
O3058       O  0.49917371  0.16033083  0.54595358    -0.93000
C3059       C  0.42547845  0.13848801  0.44124782     1.00700
C3060       C  0.41723391  0.12023733  0.53668150     1.13700
C3061       C  0.40745502  0.23345981  0.49440820     1.04400
O3062       O  0.47871243  0.24320006  0.44583871    -0.95200
O3063       O  0.52812284  0.24003392  0.48854470    -0.90900
O3064       O  0.55411958  0.20669284  0.49815565    -0.84100
C3065       C  0.55115346  0.22946948  0.49141863     1.11100
O3066       O  0.43121901  0.19406360  0.57915622    -0.97200
Zr3067     Zr  0.47149907  0.19336864  0.55661640     1.88900
O3068       O  0.54332167  0.20331357  0.54683364    -0.73800
O3069       O  0.48032921  0.27025200  0.50341979    -0.53100
O3070       O  0.46146824  0.23642112  0.56944416    -0.97700
O3071       O  0.47400173  0.17290002  0.59818770    -0.55000
O3072       O  0.51055396  0.20905932  0.57418828    -0.74300
C3073       C  0.53354842  0.21222835  0.56701554     0.98000
O3074       O  0.56399111  0.15675393  0.49568046    -0.63100
O3075       O  0.49167435  0.08785321  0.50139861    -0.57900
O3076       O  0.54853945  0.14546497  0.53976444    -0.94600
O3077       O  0.51905752  0.11535073  0.54725897    -0.93000
O3078       O  0.49156277  0.12338209  0.42687666    -0.93400
O3079       O  0.52779448  0.14768414  0.44136178    -0.92200
C3080       C  0.54096647  0.12542147  0.55105130     1.16900
H3081       H  0.45022495  0.12361526  0.48035373     0.32800
H3082       H  0.51919733  0.19885633  0.46435397     0.43700
H3083       H  0.50749696  0.15615151  0.56175521     0.37200
H3084       H  0.43838851  0.21858852  0.52665654     0.33700
H3085       H  0.49593609  0.18113250  0.40780790     0.25500
H3086       H  0.47784655  0.28053431  0.48785012     0.31400
H3087       H  0.46820715  0.24723333  0.55562367     0.37300
H3088       H  0.49072286  0.13099375  0.40967584     0.31800
H3089       H  0.48308219  0.08955191  0.48479741     0.30600
H3090       H  0.47214315  0.10574854  0.57418622     0.32300
H3091       H  0.47134448  0.18678594  0.61041366     0.31300
H3092       H  0.53234885  0.16113667  0.42906209     0.35300
H3093       H  0.56319452  0.16111434  0.47743059     0.28000
H3094       H  0.37870560  0.17412258  0.47845847     0.32300
H3095       H  0.41837181  0.18968876  0.56618695     0.35100
H3096       H  0.50995379  0.08997150  0.49756055     0.27700
H3097       H  0.57887560  0.16605588  0.50231949     0.40600
H3098       H  0.46054153  0.24560983  0.44165943     0.30600
H3099       H  0.46800681  0.18867379  0.41434871     0.38300
H3100       H  0.49201462  0.16809463  0.60061066     0.30100
H3101       H  0.46455823  0.27275469  0.51326166     0.30200
H3102       H  0.37836663  0.15338133  0.49961641     0.30400
Zr3103     Zr  0.18199564  0.25542747  0.42724307     2.17500
O3104       O  0.13665594  0.24876900  0.41979020    -0.51900
O3105       O  0.16534535  0.29188594  0.40345295    -0.75100
O3106       O  0.15555953  0.25972612  0.46442817    -0.81900
O3107       O  0.19593507  0.21595469  0.36718670    -0.83600
O3108       O  0.18083139  0.26906672  0.49814142    -0.79300
O3109       O  0.16694283  0.22347083  0.39791658    -0.90900
O3110       O  0.19803979  0.31611393  0.38993101    -0.76900
O3111       O  0.20684767  0.28852198  0.44573201    -0.86400
O3112       O  0.21065868  0.26645441  0.39422327    -0.86100
O3113       O  0.20221421  0.23755317  0.46475453    -0.72800
O3114       O  0.20547918  0.21793211  0.41752542    -0.84900
Zr3115     Zr  0.27962094  0.24484290  0.43895211     2.26400
Zr3116     Zr  0.22860011  0.27073347  0.48264643     2.06300
Zr3117     Zr  0.23550071  0.22981196  0.38561786     2.10000
Zr3118     Zr  0.23507591  0.29971684  0.41195823     1.78800
O3119       O  0.23629060  0.19032498  0.36205636    -0.93700
O3120       O  0.22467535  0.34018402  0.43129285    -0.41600
O3121       O  0.26112954  0.26346286  0.40166526    -0.78200
O3122       O  0.25620520  0.28351894  0.44867831    -0.96900
O3123       O  0.25049818  0.23326603  0.47146500    -0.90200
O3124       O  0.25501791  0.21126257  0.42223527    -0.93000
C3125       C  0.17457231  0.30983019  0.38976999     1.00700
C3126       C  0.17379221  0.21366263  0.37679432     1.13700
C3127       C  0.15825961  0.26403460  0.48810147     1.04400
O3128       O  0.22975243  0.31518543  0.49435008    -0.95200
O3129       O  0.27819542  0.26821875  0.49662557    -0.90900
O3130       O  0.30077009  0.27618565  0.46174657    -0.84100
C3131       C  0.30057331  0.27211142  0.48525170     1.11100
O3132       O  0.18485992  0.17830449  0.45356220    -0.97200
Zr3133     Zr  0.22540442  0.20044697  0.45410777     1.88900
O3134       O  0.29196986  0.21747488  0.47457071    -0.73800
O3135       O  0.22753317  0.26429373  0.52837264    -0.53100
O3136       O  0.21022119  0.18028750  0.49282040    -0.97700
O3137       O  0.23657085  0.16160563  0.43191824    -0.55000
O3138       O  0.26034261  0.18921928  0.48149848    -0.74300
C3139       C  0.28198449  0.19891718  0.48666300     0.98000
O3140       O  0.32568474  0.24338357  0.43326565    -0.63100
O3141       O  0.23980195  0.25277854  0.34569612    -0.57900
O3142       O  0.30410128  0.22372222  0.40681984    -0.94600
O3143       O  0.27734766  0.21463744  0.37447433    -0.93000
O3144       O  0.24908919  0.31283806  0.36992922    -0.93400
O3145       O  0.27309973  0.32585522  0.41243385    -0.92200
C3146       C  0.29893216  0.21327827  0.38564634     1.16900
H3147       H  0.20217318  0.27096650  0.37860980     0.32800
H3148       H  0.26543702  0.29798586  0.45471223     0.43700
H3149       H  0.26530295  0.19664635  0.41834375     0.37200
H3150       H  0.19025068  0.23082848  0.47681682     0.33700
H3151       H  0.20603621  0.33994918  0.43369301     0.25500
H3152       H  0.21700108  0.27835327  0.53489853     0.31400
H3153       H  0.21291182  0.19309707  0.50617179     0.37300
H3154       H  0.25879700  0.29824952  0.36334324     0.31800
H3155       H  0.25752585  0.24965923  0.34034108     0.30600
H3156       H  0.24218235  0.17742669  0.37445900     0.32300
H3157       H  0.22214238  0.14998443  0.43483774     0.31300
H3158       H  0.28734404  0.31364493  0.41371115     0.35300
H3159       H  0.33153493  0.26092512  0.43022198     0.28000
H3160       H  0.12747083  0.26340191  0.42699508     0.32300
H3161       H  0.17209097  0.19162395  0.44993899     0.35100
H3162       H  0.22937275  0.24308468  0.33351633     0.27700
H3163       H  0.33296522  0.23839365  0.44990792     0.40600
H3164       H  0.21279699  0.31851702  0.50164815     0.30600
H3165       H  0.23171094  0.33900805  0.44866240     0.38300
H3166       H  0.25066548  0.15420419  0.44196209     0.30100
H3167       H  0.21695126  0.24901002  0.53080802     0.30200
H3168       H  0.13171195  0.23403769  0.43031594     0.30400
C3169       C  0.37504033  0.27033562  0.48404386    -0.20900
C3170       C  0.38167102  0.24842860  0.49800965    -0.07500
C3171       C  0.36123203  0.23864674  0.51362032     0.13400
C3172       C  0.33537392  0.24744722  0.51118544    -0.20900
C3173       C  0.32837027  0.26816350  0.49565801    -0.07500
C3174       C  0.34966722  0.28073667  0.48377638     0.13400
C3175       C  0.34626349  0.30574762  0.47033601    -0.24300
H3176       H  0.38964749  0.27943661  0.47283156     0.14700
H3177       H  0.32053748  0.23757380  0.52135896     0.14700
C3178       C  0.36594779  0.21923305  0.53418367    -0.24200
H3179       H  0.35974543  0.31973194  0.47834765     0.04900
H3180       H  0.32693890  0.31371062  0.47276133     0.08200
H3181       H  0.35022953  0.30353468  0.44982049     0.08200
H3182       H  0.38635611  0.21538125  0.53747477     0.08100
H3183       H  0.35603077  0.20134038  0.52951491     0.08100
H3184       H  0.35836279  0.22643625  0.55240531     0.04900
C3185       C  0.62408826  0.22811385  0.48415450    -0.20900
C3186       C  0.63253969  0.24472944  0.50315686    -0.07500
C3187       C  0.61337802  0.26202606  0.51223322     0.13400
C3188       C  0.58701935  0.25963726  0.50545285    -0.20900
C3189       C  0.57807527  0.24127874  0.48835697    -0.07500
C3190       C  0.59790088  0.22667395  0.47642301     0.13400
C3191       C  0.59166022  0.20787414  0.45601495    -0.24300
H3192       H  0.63764821  0.21494738  0.47620314     0.14700
H3193       H  0.57319653  0.27149226  0.51482937     0.14700
C3194       C  0.61996630  0.28345446  0.52977862    -0.24200
H3195       H  0.60249756  0.21266639  0.43862298     0.04900
H3196       H  0.57121357  0.20794676  0.45093382     0.08200
H3197       H  0.59717023  0.18855804  0.46234175     0.08200
H3198       H  0.64068822  0.28576570  0.53245296     0.08100
H3199       H  0.61089197  0.28031654  0.54851151     0.08100
H3200       H  0.61278547  0.30152798  0.52160661     0.04900
C3201       C  0.08726626  0.24649811  0.50224075    -0.20900
C3202       C  0.07840965  0.26657038  0.51723699    -0.07500
C3203       C  0.09819772  0.28200247  0.52808718     0.13400
C3204       C  0.12422755  0.28018296  0.52015657    -0.20900
C3205       C  0.13258517  0.26180351  0.50282799    -0.07500
C3206       C  0.11361603  0.24334197  0.49600414     0.13400
C3207       C  0.12045165  0.21936344  0.48234406    -0.24300
H3208       H  0.07348548  0.23358632  0.49432949     0.14700
H3209       H  0.13778753  0.29400140  0.52689449     0.14700
C3210       C  0.09211068  0.30154945  0.54783129    -0.24200
H3211       H  0.10993112  0.21840185  0.46414857     0.04900
H3212       H  0.14107713  0.21748499  0.47880105     0.08200
H3213       H  0.11475884  0.20286698  0.49416350     0.08200
H3214       H  0.07189356  0.30101182  0.55366173     0.08100
H3215       H  0.09658646  0.32073075  0.54042663     0.08100
H3216       H  0.10376691  0.29788362  0.56504029     0.04900
C3217       C  0.83684967  0.25308587  0.49170058    -0.20900
C3218       C  0.82907930  0.23686981  0.51151344    -0.07500
C3219       C  0.84983590  0.22626045  0.52621632     0.13400
C3220       C  0.87556376  0.23510525  0.52385877    -0.20900
C3221       C  0.88295479  0.25299976  0.50543664    -0.07500
C3222       C  0.86301219  0.26002651  0.48779160     0.13400
C3223       C  0.86860596  0.27482037  0.46394158    -0.24300
H3224       H  0.82235892  0.26133321  0.47958519     0.14700
H3225       H  0.88975830  0.22838282  0.53719631     0.14700
C3226       C  0.84541273  0.20546820  0.54539080    -0.24200
H3227       H  0.86187014  0.26390943  0.44731754     0.04900
H3228       H  0.88914035  0.27824912  0.46105068     0.08200
H3229       H  0.85833343  0.29314705  0.46421643     0.08200
H3230       H  0.82576860  0.19799284  0.54474994     0.08100
H3231       H  0.84956463  0.21248340  0.56474793     0.08100
H3232       H  0.85826495  0.18933546  0.54129636     0.04900
C3233       C  0.13125595  0.31866425  0.33289291    -0.20900
C3234       C  0.13547354  0.34415414  0.32624757    -0.07500
C3235       C  0.15009448  0.35926079  0.34297771     0.13400
C3236       C  0.16152644  0.34795171  0.36449136    -0.20900
C3237       C  0.15799527  0.32219456  0.37039665    -0.07500
C3238       C  0.14187257  0.30762977  0.35470251     0.13400
C3239       C  0.13645996  0.28004933  0.36001334    -0.24300
H3240       H  0.11964168  0.30696249  0.32072420     0.14700
H3241       H  0.17370261  0.35919093  0.37657736     0.14700
C3242       C  0.15348118  0.38727031  0.33869285    -0.24200
H3243       H  0.12421269  0.27148759  0.34521251     0.04900
H3244       H  0.12630329  0.27815016  0.37831751     0.08200
H3245       H  0.15444710  0.26910060  0.36065514     0.08200
H3246       H  0.13463213  0.39669351  0.33779414     0.08100
H3247       H  0.16397453  0.39069048  0.32079180     0.08100
H3248       H  0.16446415  0.39615522  0.35426728     0.04900
C3249       C  0.07270372  0.37610518  0.38712793    -0.20900
C3250       C  0.05857040  0.39389352  0.37334246    -0.07500
C3251       C  0.04292514  0.41126728  0.38635012     0.13400
C3252       C  0.03991611  0.40871220  0.41251045    -0.20900
C3253       C  0.05109450  0.38852418  0.42594569    -0.07500
C3254       C  0.06955777  0.37338680  0.41340516     0.13400
C3255       C  0.08549249  0.35374871  0.42695062    -0.24300
H3256       H  0.08567764  0.36374125  0.37713297     0.14700
H3257       H  0.02670810  0.42118533  0.42202500     0.14700
C3258       C  0.02775143  0.43137673  0.37269713    -0.24200
H3259       H  0.10105595  0.34664351  0.41470984     0.04900
H3260       H  0.07381091  0.33713138  0.43226859     0.08200
H3261       H  0.09435117  0.36215072  0.44405431     0.08200
H3262       H  0.01560373  0.42248500  0.35804686     0.08100
H3263       H  0.04079396  0.44532742  0.36394002     0.08100
H3264       H  0.01511719  0.44195192  0.38572684     0.04900
C3265       C  0.00658399  0.50351168  0.27013222    -0.20900
C3266       C  0.99909184  0.49042661  0.24785499    -0.07500
C3267       C  0.99175323  0.50623720  0.22708781     0.13400
C3268       C  0.99324212  0.53317800  0.22856778    -0.20900
C3269       C  0.00229730  0.54619843  0.25013315    -0.07500
C3270       C  0.00856473  0.53067914  0.27135606     0.13400
C3271       C  0.01893113  0.54276855  0.29489693    -0.24300
H3272       H  0.01311669  0.49242927  0.28612461     0.14700
H3273       H  0.98916938  0.54413379  0.21163610     0.14700
C3274       C  0.98369047  0.49509950  0.20212648    -0.24200
H3275       H  0.02316953  0.52848841  0.30985828     0.04900
H3276       H  0.00480823  0.55636234  0.30248234     0.08200
H3277       H  0.03674354  0.55303777  0.29038969     0.08200
H3278       H  0.98230288  0.47416250  0.20282469     0.08100
H3279       H  0.99754305  0.50046925  0.18720334     0.08100
H3280       H  0.96470626  0.50260900  0.19679917     0.04900
C3281       C  0.01707445  0.78474199  0.23932519    -0.20900
C3282       C  0.00032839  0.79636078  0.25648736    -0.07500
C3283       C  0.98684538  0.77938209  0.27290691     0.13400
C3284       C  0.98952567  0.75235062  0.27108046    -0.20900
C3285       C  0.00518898  0.74072092  0.25283135    -0.07500
C3286       C  0.01965649  0.75784443  0.23735459     0.13400
C3287       C  0.03716263  0.74826608  0.21704735    -0.24300
H3288       H  0.02703036  0.79671302  0.22588827     0.14700
H3289       H  0.97753307  0.74026204  0.28257761     0.14700
C3290       C  0.96825784  0.78982238  0.29173563    -0.24200
H3291       H  0.03867035  0.72738727  0.21701200     0.04900
H3292       H  0.05651334  0.75595172  0.22013975     0.08200
H3293       H  0.03017657  0.75460009  0.19816367     0.08200
H3294       H  0.95307794  0.80057820  0.28177996     0.08100
H3295       H  0.97838770  0.80248238  0.30498554     0.08100
H3296       H  0.95913646  0.77459958  0.30309253     0.04900
C3297       C  0.04906096  0.24487570  0.44261439    -0.20900
C3298       C  0.05105630  0.26742425  0.42865192    -0.07500
C3299       C  0.05874447  0.26675260  0.40330359     0.13400
C3300       C  0.05978900  0.24333939  0.39122373    -0.20900
C3301       C  0.05170818  0.22099589  0.40375560    -0.07500
C3302       C  0.04919508  0.22141600  0.43045880     0.13400
C3303       C  0.04520756  0.19787475  0.44620135    -0.24300
H3304       H  0.04368249  0.24575038  0.46240903     0.14700
H3305       H  0.06411797  0.24316881  0.37118333     0.14700
C3306       C  0.06411105  0.29076910  0.38874266    -0.24200
H3307       H  0.04679615  0.20189197  0.46678666     0.04900
H3308       H  0.05985091  0.18354034  0.44146658     0.08200
H3309       H  0.02599507  0.19013270  0.44298452     0.08200
H3310       H  0.07980267  0.30116666  0.39809988     0.08100
H3311       H  0.04695649  0.30298380  0.38817697     0.08100
H3312       H  0.06988836  0.28683272  0.36891275     0.04900
C3313       C  0.01321666  0.03006414  0.28724829    -0.20900
C3314       C  0.99898988  0.04590456  0.27066086    -0.07500
C3315       C  0.98638987  0.03339972  0.25053635     0.13400
C3316       C  0.98771147  0.00636040  0.24818166    -0.20900
C3317       C  0.00058043  0.99046540  0.26590945    -0.07500
C3318       C  0.01404287  0.00313137  0.28529665     0.13400
C3319       C  0.02800568  0.98798552  0.30518946    -0.24300
H3320       H  0.02239690  0.03866489  0.30321337     0.14700
H3321       H  0.97668620  0.99738659  0.23349174     0.14700
C3322       C  0.96968178  0.04832946  0.23278568    -0.24200
H3323       H  0.03760630  0.00037391  0.31916358     0.04900
H3324       H  0.04265525  0.97604909  0.29599224     0.08200
H3325       H  0.01453989  0.97561552  0.31563084     0.08200
H3326       H  0.98104585  0.06318964  0.22314127     0.08100
H3327       H  0.95412595  0.05743032  0.24361441     0.08100
H3328       H  0.96103836  0.03610728  0.21806498     0.04900
C3329       C  0.98541732  0.28170701  0.26202264    -0.20900
C3330       C  0.00869940  0.29516495  0.26058600    -0.07500
C3331       C  0.03075474  0.27969047  0.25662508     0.13400
C3332       C  0.02932329  0.25283344  0.25600497    -0.20900
C3333       C  0.00668590  0.23919086  0.25948937    -0.07500
C3334       C  0.98421981  0.25436557  0.26141401     0.13400
C3335       C  0.95863482  0.24215794  0.26348072    -0.24300
H3336       H  0.96811282  0.29236114  0.26502532     0.14700
H3337       H  0.04689842  0.24217276  0.25485542     0.14700
C3338       C  0.05709786  0.29053186  0.25397251    -0.24200
H3339       H  0.94628739  0.24905758  0.24780538     0.04900
H3340       H  0.94975175  0.24717344  0.28182335     0.08200
H3341       H  0.95993915  0.22129745  0.26195566     0.08200
H3342       H  0.06923305  0.28369610  0.26981633     0.08100
H3343       H  0.05750871  0.31143753  0.25355445     0.08100
H3344       H  0.06565473  0.28383798  0.23600909     0.04900
C3345       C  0.13041966  0.18447282  0.32740503    -0.20900
C3346       C  0.11493734  0.16942706  0.34301764    -0.07500
C3347       C  0.12010153  0.16793884  0.36935766     0.13400
C3348       C  0.14020135  0.18186041  0.37932597    -0.20900
C3349       C  0.15506563  0.19758575  0.36395009    -0.07500
C3350       C  0.15053305  0.19859650  0.33755284     0.13400
C3351       C  0.16578281  0.21551439  0.32028132    -0.24300
H3352       H  0.12617108  0.18586144  0.30732821     0.14700
H3353       H  0.14392735  0.18103222  0.39954830     0.14700
C3354       C  0.10367282  0.15314612  0.38754302    -0.24200
H3355       H  0.18592760  0.20936042  0.32023036     0.04900
H3356       H  0.16452542  0.23540922  0.32680361     0.08200
H3357       H  0.15874818  0.21485680  0.30043315     0.08200
H3358       H  0.10510593  0.13269413  0.38333918     0.08100
H3359       H  0.08364896  0.15953598  0.38600089     0.08100
H3360       H  0.10967198  0.15570207  0.40756580     0.04900
C3361       C  0.10487193  0.40579037  0.13679081    -0.20900
C3362       C  0.07895666  0.41099260  0.14016626    -0.07500
C3363       C  0.06642183  0.42730447  0.12275142     0.13400
C3364       C  0.08048032  0.43901807  0.10341320    -0.20900
C3365       C  0.10676293  0.43533226  0.10136558    -0.07500
C3366       C  0.11899592  0.41784643  0.11776870     0.13400
C3367       C  0.14681102  0.41151808  0.11526261    -0.24300
H3368       H  0.11452230  0.39325213  0.15001376     0.14700
H3369       H  0.07107024  0.45201879  0.09046343     0.14700
C3370       C  0.03830957  0.43245383  0.12427867    -0.24200
H3371       H  0.15258942  0.39607038  0.12845338     0.04900
H3372       H  0.15858994  0.42823363  0.11983580     0.08200
H3373       H  0.15088222  0.40520336  0.09565155     0.08200
H3374       H  0.03380824  0.44335829  0.14158256     0.08100
H3375       H  0.02774174  0.41429261  0.12443424     0.08100
H3376       H  0.03149932  0.44380498  0.10781446     0.04900
C3377       C  0.09582959  0.54285673  0.10412138    -0.20900
C3378       C  0.11398537  0.55863987  0.09272530    -0.07500
C3379       C  0.11005687  0.58514353  0.09282538     0.13400
C3380       C  0.08865535  0.59512322  0.10516602    -0.20900
C3381       C  0.07069323  0.57934254  0.11695388    -0.07500
C3382       C  0.07409862  0.55274714  0.11584152     0.13400
C3383       C  0.05458873  0.53454328  0.12609748    -0.24300
H3384       H  0.09824580  0.52249791  0.10310323     0.14700
H3385       H  0.08625759  0.61547362  0.10612188     0.14700
C3386       C  0.12864149  0.60306372  0.08057323    -0.24200
H3387       H  0.05917519  0.51463541  0.12119872     0.04900
H3388       H  0.03564119  0.53907751  0.11797667     0.08200
H3389       H  0.05389705  0.53556276  0.14701574     0.08200
H3390       H  0.14791158  0.59980210  0.08850938     0.08100
H3391       H  0.12345792  0.62314645  0.08394016     0.08100
H3392       H  0.12894836  0.60022212  0.05976529     0.04900
C3393       C  0.15710413  0.58713268  0.17854676    -0.20900
C3394       C  0.17348766  0.60745074  0.18364633    -0.07500
C3395       C  0.16399237  0.63232509  0.18241810     0.13400
C3396       C  0.13782054  0.63605991  0.18020321    -0.20900
C3397       C  0.12087401  0.61546314  0.18009126    -0.07500
C3398       C  0.13075968  0.59065205  0.17786894     0.13400
C3399       C  0.11396082  0.56766333  0.17611191    -0.24300
H3400       H  0.16446856  0.56794880  0.17904511     0.14700
H3401       H  0.13066592  0.65525561  0.18061763     0.14700
C3402       C  0.18090511  0.65507422  0.18532143    -0.24200
H3403       H  0.12505698  0.55019104  0.17244842     0.04900
H3404       H  0.10026865  0.57010927  0.16035110     0.08200
H3405       H  0.10363030  0.56472734  0.19418206     0.08200
H3406       H  0.20129262  0.64977257  0.18597295     0.08100
H3407       H  0.17600150  0.66522161  0.20302463     0.08100
H3408       H  0.17812565  0.66805999  0.16891783     0.04900
C3409       C  0.24935981  0.47913499  0.16543211    -0.20900
C3410       C  0.26669670  0.49770732  0.17322712    -0.07500
C3411       C  0.27782145  0.51206354  0.15265555     0.13400
C3412       C  0.26808990  0.51101641  0.12721551    -0.20900
C3413       C  0.24868836  0.49420129  0.12008772    -0.07500
C3414       C  0.24111227  0.47658274  0.13963300     0.13400
C3415       C  0.22454893  0.45408647  0.13402989    -0.24300
H3416       H  0.24164040  0.46668888  0.17958591     0.14700
H3417       H  0.27546049  0.52396686  0.11303870     0.14700
C3418       C  0.30039895  0.52899999  0.15690019    -0.24200
H3419       H  0.23464813  0.43652026  0.13987255     0.04900
H3420       H  0.22002825  0.45214434  0.11363833     0.08200
H3421       H  0.20669222  0.45538216  0.14504529     0.08200
H3422       H  0.30825756  0.52720678  0.17635010     0.08100
H3423       H  0.29506736  0.54901675  0.15319160     0.08100
H3424       H  0.31581659  0.52360730  0.14365870     0.04900
C3425       C  0.16769390  0.44368848  0.19757857    -0.20900
C3426       C  0.14284290  0.44903445  0.18982000    -0.07500
C3427       C  0.13806214  0.47222472  0.17705125     0.13400
C3428       C  0.15564234  0.49197935  0.17970695    -0.20900
C3429       C  0.17804999  0.48812814  0.19360731    -0.07500
C3430       C  0.18496833  0.46325459  0.20092946     0.13400
C3431       C  0.20842851  0.45712123  0.21615102    -0.24300
H3432       H  0.17234898  0.42528947  0.20555810     0.14700
H3433       H  0.15074143  0.51083458  0.17311953     0.14700
C3434       C  0.11437548  0.47682869  0.16167189    -0.24200
H3435       H  0.21937363  0.44200500  0.20656149     0.04900
H3436       H  0.20290737  0.44979955  0.23509005     0.08200
H3437       H  0.22084121  0.47371207  0.21882387     0.08200
H3438       H  0.11962819  0.48276428  0.14216042     0.08100
H3439       H  0.10288846  0.49205097  0.17043409     0.08100
H3440       H  0.10273140  0.45947337  0.15989083     0.04900
C3441       C  0.23788283  0.50036418  0.38929009    -0.20900
C3442       C  0.25465618  0.49128052  0.36997745    -0.07500
C3443       C  0.27227540  0.47276840  0.37854856     0.13400
C3444       C  0.27382267  0.46580653  0.40504428    -0.20900
C3445       C  0.25870895  0.47690442  0.42478274    -0.07500
C3446       C  0.23983195  0.49387771  0.41579469     0.13400
C3447       C  0.22263133  0.50660070  0.43437139    -0.24300
H3448       H  0.22346518  0.51391964  0.38383541     0.14700
H3449       H  0.28852846  0.45253913  0.41064697     0.14700
C3450       C  0.29052310  0.46124613  0.36004969    -0.24200
H3451       H  0.20907287  0.51973723  0.42490878     0.04900
H3452       H  0.23432846  0.51758899  0.44772116     0.08200
H3453       H  0.21165110  0.49215419  0.44504252     0.08200
H3454       H  0.30233771  0.47630700  0.35128974     0.08100
H3455       H  0.27980169  0.45127792  0.34498183     0.08100
H3456       H  0.30338297  0.44736184  0.36941458     0.04900
C3457       C  0.22664957  0.51435953  0.90492333    -0.20900
C3458       C  0.24093176  0.50306483  0.92537526    -0.07500
C3459       C  0.25976289  0.48557894  0.91731381     0.13400
C3460       C  0.26179195  0.47852453  0.89113156    -0.20900
C3461       C  0.24556785  0.48765383  0.87125592    -0.07500
C3462       C  0.22839259  0.50685111  0.87875978     0.13400
C3463       C  0.21083596  0.51863010  0.85952253    -0.24300
H3464       H  0.21240424  0.52834990  0.90965360     0.14700
H3465       H  0.27605657  0.46456930  0.88638906     0.14700
C3466       C  0.27789546  0.47314022  0.93552335    -0.24200
H3467       H  0.19840276  0.53322305  0.86813171     0.04900
H3468       H  0.19855619  0.50383302  0.85110174     0.08200
H3469       H  0.22212178  0.52781701  0.84429995     0.08200
H3470       H  0.27530303  0.47930447  0.95529898     0.08100
H3471       H  0.29764643  0.47784020  0.92995925     0.08100
H3472       H  0.27555430  0.45232049  0.93455482     0.04900
C3473       C  0.25718587  0.49868254  0.64010101    -0.20900
C3474       C  0.24889819  0.48075693  0.62163940    -0.07500
C3475       C  0.23218085  0.46199762  0.63076084     0.13400
C3476       C  0.22626667  0.46036632  0.65723516    -0.20900
C3477       C  0.23691559  0.47648518  0.67634161    -0.07500
C3478       C  0.25132207  0.49709929  0.66663630     0.13400
C3479       C  0.26105081  0.51790370  0.68328079    -0.24300
H3480       H  0.26950350  0.51390078  0.63385789     0.14700
H3481       H  0.21417589  0.44490756  0.66323971     0.14700
C3482       C  0.22165285  0.44265461  0.61283670    -0.24200
H3483       H  0.28199008  0.51896529  0.68173387     0.04900
H3484       H  0.25573537  0.51546270  0.70338637     0.08200
H3485       H  0.25299556  0.53623928  0.67669323     0.08200
H3486       H  0.23741834  0.43188506  0.60404567     0.08100
H3487       H  0.21046938  0.45230408  0.59773933     0.08100
H3488       H  0.20902401  0.42898117  0.62268202     0.04900
C3489       C  0.54586804  0.24831120  0.62343774    -0.20900
C3490       C  0.54373964  0.27255671  0.61238053    -0.07500
C3491       C  0.54876401  0.27573765  0.58631351     0.13400
C3492       C  0.55122739  0.25407011  0.57133120    -0.20900
C3493       C  0.54810031  0.22991020  0.58206090    -0.07500
C3494       C  0.54793075  0.22689459  0.60848891     0.13400
C3495       C  0.54669111  0.20123786  0.62109153    -0.24300
H3496       H  0.54329885  0.24563709  0.64365891     0.14700
H3497       H  0.55173018  0.25608734  0.55090763     0.14700
C3498       C  0.55084605  0.30153650  0.57419588    -0.24200
H3499       H  0.52853856  0.19931941  0.63158403     0.04900
H3500       H  0.54794557  0.18559771  0.60725456     0.08200
H3501       H  0.56273715  0.19916887  0.63462067     0.08200
H3502       H  0.56564237  0.31268693  0.58409704     0.08100
H3503       H  0.53243136  0.31165892  0.57505714     0.08100
H3504       H  0.55631732  0.30021115  0.55392787     0.04900
C3505       C  0.38238148  0.39446950  0.59493850    -0.20900
C3506       C  0.38008703  0.42092749  0.59539469    -0.07500
C3507       C  0.39932661  0.43548326  0.60708220     0.13400
C3508       C  0.42024135  0.42320789  0.61784933    -0.20900
C3509       C  0.42288334  0.39679070  0.61721955    -0.07500
C3510       C  0.40345475  0.38213689  0.60588720     0.13400
C3511       C  0.40444172  0.35364346  0.60561183    -0.24300
H3512       H  0.36779196  0.38346737  0.58559443     0.14700
H3513       H  0.43497458  0.43452114  0.62657439     0.14700
C3514       C  0.39890462  0.46408391  0.60723546    -0.24200
H3515       H  0.38711189  0.34541152  0.59694424     0.04900
H3516       H  0.40597334  0.34623796  0.62530533     0.08200
H3517       H  0.42095820  0.34720601  0.59433239     0.08200
H3518       H  0.38187799  0.47100967  0.61738217     0.08100
H3519       H  0.39909041  0.47154602  0.58758041     0.08100
H3520       H  0.41573836  0.47207545  0.61702922     0.04900
C3521       C  0.33490256  0.33442935  0.70171726    -0.20900
C3522       C  0.32381592  0.35763355  0.69469225    -0.07500
C3523       C  0.33820572  0.37431141  0.67907870     0.13400
C3524       C  0.36447700  0.37009483  0.67628059    -0.20900
C3525       C  0.37635979  0.34892666  0.68732900    -0.07500
C3526       C  0.36087551  0.32974695  0.69813249     0.13400
C3527       C  0.37165584  0.30507104  0.70782612    -0.24300
H3528       H  0.32372579  0.32079664  0.71230082     0.14700
H3529       H  0.37596711  0.38390434  0.66626320     0.14700
C3530       C  0.32654236  0.39696737  0.66598740    -0.24200
H3531       H  0.35680804  0.29275250  0.71627299     0.04900
H3532       H  0.38597386  0.30882415  0.72273717     0.08200
H3533       H  0.38040373  0.29443802  0.69200027     0.08200
H3534       H  0.32109714  0.41151784  0.67999152     0.08100
H3535       H  0.30963906  0.39098728  0.65493283     0.08100
H3536       H  0.34004893  0.40593592  0.65252533     0.04900
C3537       C  0.63224110  0.31491408  0.62799057    -0.20900
C3538       C  0.64750124  0.29883237  0.64281625    -0.07500
C3539       C  0.64346940  0.29733732  0.66924192     0.13400
C3540       C  0.62354719  0.31123397  0.67992688    -0.20900
C3541       C  0.60776437  0.32688662  0.66502444    -0.07500
C3542       C  0.61259380  0.32915132  0.63868294     0.13400
C3543       C  0.59674367  0.34566917  0.62139713    -0.24300
H3544       H  0.63571530  0.31630860  0.60777617     0.14700
H3545       H  0.61994202  0.30944917  0.70007999     0.14700
C3546       C  0.65929872  0.28040344  0.68613881    -0.24200
H3547       H  0.60306275  0.34454993  0.60135481     0.04900
H3548       H  0.59831664  0.36573578  0.62728638     0.08200
H3549       H  0.57661171  0.33957354  0.62208381     0.08200
H3550       H  0.67925319  0.28706653  0.68640170     0.08100
H3551       H  0.65859715  0.26065949  0.67912017     0.08100
H3552       H  0.65236400  0.28038702  0.70600909     0.04900
C3553       C  0.36562379  0.50031886  0.70034397    -0.20900
C3554       C  0.35519555  0.52208951  0.71185470    -0.07500
C3555       C  0.32895557  0.52227642  0.71772069     0.13400
C3556       C  0.31534433  0.49966534  0.71594804    -0.20900
C3557       C  0.32711822  0.47721479  0.70835212    -0.07500
C3558       C  0.35197488  0.47772135  0.69899025     0.13400
C3559       C  0.36431405  0.45427389  0.68848983    -0.24300
H3560       H  0.38521852  0.50015275  0.69421364     0.14700
H3561       H  0.29606954  0.49894153  0.72305990     0.14700
C3562       C  0.31517320  0.54548693  0.72692690    -0.24200
H3563       H  0.36546919  0.43923140  0.70322615     0.04900
H3564       H  0.38386767  0.45810417  0.68166844     0.08200
H3565       H  0.35300439  0.44734352  0.67219757     0.08200
H3566       H  0.31844406  0.56153053  0.71364083     0.08100
H3567       H  0.32160345  0.55042690  0.74627064     0.08100
H3568       H  0.29436175  0.54234239  0.72799601     0.04900
C3569       C  0.48963406  0.48554825  0.76704125    -0.20900
C3570       C  0.50056056  0.50024431  0.74722461    -0.07500
C3571       C  0.51184485  0.48616890  0.72733742     0.13400
C3572       C  0.51069985  0.45908777  0.72700399    -0.20900
C3573       C  0.49808360  0.44453513  0.74583911    -0.07500
C3574       C  0.48792538  0.45841331  0.76642145     0.13400
C3575       C  0.47362494  0.44472153  0.78694051    -0.24300
H3576       H  0.48051850  0.49550668  0.78234232     0.14700
H3577       H  0.51832577  0.44920731  0.71077166     0.14700
C3578       C  0.52399290  0.49994052  0.70547493    -0.24200
H3579       H  0.46635526  0.45796631  0.80149621     0.04900
H3580       H  0.48636110  0.43081374  0.79641972     0.08200
H3581       H  0.45718883  0.43457958  0.77860751     0.08200
H3582       H  0.53955370  0.51212889  0.71263608     0.08100
H3583       H  0.50970516  0.51193471  0.69559180     0.08100
H3584       H  0.53212894  0.48661717  0.69145544     0.04900
C3585       C  0.38538711  0.57475775  0.64294011    -0.20900
C3586       C  0.41193615  0.57333349  0.64392720    -0.07500
C3587       C  0.42517369  0.56010250  0.62490186     0.13400
C3588       C  0.41133366  0.54728624  0.60626113    -0.20900
C3589       C  0.38465692  0.54735265  0.60618549    -0.07500
C3590       C  0.37152330  0.56201236  0.62435203     0.13400
C3591       C  0.34305879  0.56497156  0.62410752    -0.24300
H3592       H  0.37529473  0.58511563  0.65747120     0.14700
H3593       H  0.42145079  0.53657546  0.59202255     0.14700
C3594       C  0.45376211  0.55982197  0.62380671    -0.24200
H3595       H  0.33376306  0.54661705  0.62823493     0.04900
H3596       H  0.33686858  0.57228041  0.60532793     0.08200
H3597       H  0.33645315  0.57856239  0.63867334     0.08200
H3598       H  0.46171851  0.54979166  0.64055426     0.08100
H3599       H  0.46100013  0.57954397  0.62322278     0.08100
H3600       H  0.46077895  0.54993946  0.60666533     0.04900
C3601       C  0.47812395  0.73804637  0.74022344    -0.20900
C3602       C  0.50077335  0.75036162  0.74708896    -0.07500
C3603       C  0.52164041  0.73392782  0.75310145     0.13400
C3604       C  0.51851953  0.70681550  0.75469538    -0.20900
C3605       C  0.49499470  0.69483771  0.74980427    -0.07500
C3606       C  0.47520431  0.71125678  0.74089367     0.13400
C3607       C  0.44982426  0.70078246  0.73321103    -0.24300
H3608       H  0.46168725  0.74967274  0.73584798     0.14700
H3609       H  0.53429106  0.69524198  0.76110884     0.14700
C3610       C  0.54750694  0.74451039  0.75838668    -0.24200
H3611       H  0.44005825  0.71361716  0.71955012     0.04900
H3612       H  0.43757980  0.69839408  0.75014728     0.08200
H3613       H  0.45237794  0.68231825  0.72366664     0.08200
H3614       H  0.54777561  0.76545069  0.75702543     0.08100
H3615       H  0.56115878  0.73699112  0.74430023     0.08100
H3616       H  0.55387810  0.73859366  0.77757203     0.04900
C3617       C  0.65290021  0.13847006  0.66188512    -0.20900
C3618       C  0.64182020  0.15407869  0.68039504    -0.07500
C3619       C  0.64367919  0.18070747  0.67742208     0.13400
C3620       C  0.65539888  0.19079512  0.65572120    -0.20900
C3621       C  0.66586405  0.17523634  0.63691221    -0.07500
C3622       C  0.66500565  0.14870022  0.64029433     0.13400
C3623       C  0.67595660  0.13112903  0.62080092    -0.24300
H3624       H  0.65140278  0.11810445  0.66391424     0.14700
H3625       H  0.65690731  0.21118044  0.65368282     0.14700
C3626       C  0.63421760  0.19875590  0.69737285    -0.24200
H3627       H  0.67258072  0.11096831  0.62582233     0.04900
H3628       H  0.69676403  0.13392812  0.61936417     0.08200
H3629       H  0.66700847  0.13492573  0.60207985     0.08200
H3630       H  0.63952615  0.21863530  0.69298507     0.08100
H3631       H  0.64264156  0.19372344  0.71605417     0.08100
H3632       H  0.61323462  0.19816296  0.69856564     0.04900
C3633       C  0.49143076  0.95639444  0.74846584    -0.20900
C3634       C  0.51503708  0.94381273  0.74494542    -0.07500
C3635       C  0.53609112  0.95979986  0.73978709     0.13400
C3636       C  0.53368284  0.98666366  0.74046480    -0.20900
C3637       C  0.51075776  0.99931089  0.74635629    -0.07500
C3638       C  0.48917761  0.98355305  0.74966914     0.13400
C3639       C  0.46403994  0.99535156  0.75595493    -0.24300
H3640       H  0.47485801  0.94493464  0.75210898     0.14700
H3641       H  0.55062723  0.99800219  0.73838545     0.14700
C3642       C  0.56177478  0.94842836  0.73451603    -0.24200
H3643       H  0.44898581  0.98084101  0.75826229     0.04900
H3644       H  0.45828355  0.00850274  0.74046904     0.08200
H3645       H  0.46560315  0.00606418  0.77392568     0.08200
H3646       H  0.56044960  0.93572374  0.71788634     0.08100
H3647       H  0.56855995  0.93740266  0.75114779     0.08100
H3648       H  0.57617069  0.96318350  0.73027012     0.04900
C3649       C  0.53440025  0.23601682  0.75266290    -0.20900
C3650       C  0.51147136  0.24972957  0.75410470    -0.07500
C3651       C  0.48902648  0.23439568  0.75497923     0.13400
C3652       C  0.49014356  0.20727261  0.75127267    -0.20900
C3653       C  0.51335922  0.19414686  0.74737149    -0.07500
C3654       C  0.53575196  0.20936008  0.74962899     0.13400
C3655       C  0.56221066  0.19839608  0.74830063    -0.24300
H3656       H  0.55198976  0.24665504  0.75212625     0.14700
H3657       H  0.47261736  0.19661829  0.75049941     0.14700
C3658       C  0.46358212  0.24597766  0.76017682    -0.24200
H3659       H  0.57187832  0.20543580  0.73096590     0.04900
H3660       H  0.56261336  0.17749627  0.74836089     0.08200
H3661       H  0.57329328  0.20449699  0.76511482     0.08200
H3662       H  0.46496928  0.26667371  0.76288425     0.08100
H3663       H  0.45571720  0.23761571  0.77784523     0.08100
H3664       H  0.45027066  0.24191968  0.74441305     0.04900
C3665       C  0.57486524  0.12658517  0.61361634    -0.20900
C3666       C  0.56345757  0.10546216  0.62497615    -0.07500
C3667       C  0.55122550  0.08733521  0.60933871     0.13400
C3668       C  0.54796518  0.09265592  0.58356084    -0.20900
C3669       C  0.55578915  0.11576255  0.57302999    -0.07500
C3670       C  0.57166309  0.13179879  0.58769662     0.13400
C3671       C  0.58467675  0.15483282  0.57681181    -0.24300
H3672       H  0.58562861  0.13956895  0.62527833     0.14700
H3673       H  0.53695862  0.07971190  0.57208195     0.14700
C3674       C  0.53971629  0.06319884  0.61960043    -0.24200
H3675       H  0.59784556  0.16356380  0.59070634     0.04900
H3676       H  0.57062511  0.16951121  0.57150864     0.08200
H3677       H  0.59598609  0.14938521  0.55997091     0.08200
H3678       H  0.52554055  0.06770907  0.63443522     0.08100
H3679       H  0.55480120  0.05072646  0.62747985     0.08100
H3680       H  0.52979009  0.05226262  0.60465479     0.04900
C3681       C  0.26362813  0.42804635  0.97850017    -0.20900
C3682       C  0.24335196  0.41840718  0.96433277    -0.07500
C3683       C  0.24618367  0.39572959  0.95108790     0.13400
C3684       C  0.26837412  0.38159561  0.95481192    -0.20900
C3685       C  0.28693281  0.38903374  0.97270502    -0.07500
C3686       C  0.28544101  0.41358398  0.98308629     0.13400
C3687       C  0.30528246  0.42391974  0.00072842    -0.24300
H3688       H  0.26125955  0.44592040  0.98816532     0.14700
H3689       H  0.27015766  0.36362530  0.94525950     0.14700
C3690       C  0.22539458  0.38603824  0.93408777    -0.24200
H3691       H  0.30545741  0.41261538  0.01845629     0.04900
H3692       H  0.30136542  0.44385047  0.00591880     0.08200
H3693       H  0.32418313  0.42349074  0.99149950     0.08200
H3694       H  0.22116282  0.40030609  0.91910606     0.08100
H3695       H  0.20794549  0.38242475  0.94528845     0.08100
H3696       H  0.23095721  0.36812712  0.92469634     0.04900
C3697       C  0.33204461  0.36088177  0.86498334    -0.20900
C3698       C  0.31228923  0.34773335  0.85313178    -0.07500
C3699       C  0.30624832  0.32286528  0.86091746     0.13400
C3700       C  0.31902798  0.31246462  0.88176293    -0.20900
C3701       C  0.33748358  0.32639078  0.89481906    -0.07500
C3702       C  0.34479679  0.35050161  0.88582539     0.13400
C3703       C  0.36455074  0.36615909  0.89920839    -0.24300
H3704       H  0.33675385  0.37983089  0.85854158     0.14700
H3705       H  0.31348563  0.29401171  0.88894932     0.14700
C3706       C  0.28520535  0.30798360  0.84862141    -0.24200
H3707       H  0.36726580  0.38486025  0.88987639     0.04900
H3708       H  0.38305691  0.35610571  0.89899910     0.08200
H3709       H  0.35866881  0.36957771  0.91909387     0.08200
H3710       H  0.28230351  0.28938714  0.85810986     0.08100
H3711       H  0.28992899  0.30430214  0.82849004     0.08100
H3712       H  0.26710695  0.31872904  0.84969613     0.04900
C3713       C  0.48988579  0.21669537  0.01700278    -0.20900
C3714       C  0.50438144  0.23152705  0.99991436    -0.07500
C3715       C  0.49027831  0.24566957  0.98174879     0.13400
C3716       C  0.46307099  0.24577748  0.98215193    -0.20900
C3717       C  0.44874704  0.23272155  0.00082017    -0.07500
C3718       C  0.46284381  0.21718379  0.01780665     0.13400
C3719       C  0.44986462  0.20201884  0.03825218    -0.24300
H3720       H  0.49981350  0.20600379  0.03139194     0.14700
H3721       H  0.45299077  0.25806294  0.96910247     0.14700
C3722       C  0.50400280  0.26220574  0.96300732    -0.24200
H3723       H  0.45532333  0.18179068  0.03656562     0.04900
H3724       H  0.42887353  0.20318258  0.03694219     0.08200
H3725       H  0.45584244  0.20899749  0.05715143     0.08200
H3726       H  0.51698692  0.25043491  0.95143878     0.08100
H3727       H  0.51523957  0.27671661  0.97319373     0.08100
H3728       H  0.49061012  0.27210067  0.95000520     0.04900
C3729       C  0.74140167  0.23374561  0.98219006    -0.20900
C3730       C  0.75525880  0.23988584  0.00460907    -0.07500
C3731       C  0.74022127  0.24360426  0.02655048     0.13400
C3732       C  0.71329911  0.24016718  0.02593300    -0.20900
C3733       C  0.69966568  0.23259314  0.00399261    -0.07500
C3734       C  0.71437825  0.22977209  0.98170158     0.13400
C3735       C  0.70193108  0.22053203  0.95784513    -0.24300
H3736       H  0.75219828  0.22938494  0.96533250     0.14700
H3737       H  0.70284396  0.24198082  0.04347968     0.14700
C3738       C  0.75293242  0.24937282  0.05142219    -0.24200
H3739       H  0.71574265  0.21890947  0.94206230     0.04900
H3740       H  0.68676425  0.23396004  0.95197115     0.08200
H3741       H  0.69343803  0.20159395  0.96125716     0.08200
H3742       H  0.76388760  0.26722223  0.04963391     0.08100
H3743       H  0.76602694  0.23374302  0.05681935     0.08100
H3744       H  0.73892163  0.25167733  0.06693608     0.04900
C3745       C  0.15008415  0.34843708  0.87581502    -0.20900
C3746       C  0.16462642  0.33203773  0.89121018    -0.07500
C3747       C  0.19142351  0.33342961  0.89010941     0.13400
C3748       C  0.20278283  0.35006452  0.87270825    -0.20900
C3749       C  0.18822028  0.36563608  0.85655774    -0.07500
C3750       C  0.16150702  0.36534710  0.85867085     0.13400
C3751       C  0.14499199  0.38325153  0.84355500    -0.24300
H3752       H  0.12956364  0.34804391  0.87724257     0.14700
H3753       H  0.22330616  0.35041661  0.87124473     0.14700
C3754       C  0.20827604  0.31694375  0.90645963    -0.24200
H3755       H  0.12470384  0.38164352  0.84901376     0.04900
H3756       H  0.14635135  0.37898133  0.82305469     0.08200
H3757       H  0.15106426  0.40306366  0.84694825     0.08200
H3758       H  0.20362699  0.29670152  0.90343513     0.08100
H3759       H  0.20567834  0.32179643  0.92672613     0.08100
H3760       H  0.22868925  0.31963527  0.90195643     0.04900
C3761       C  0.99244090  0.26125159  0.01701791    -0.20900
C3762       C  0.00689533  0.23956309  0.02392205    -0.07500
C3763       C  0.99241918  0.21809853  0.03149933     0.13400
C3764       C  0.96529251  0.21825492  0.03015364    -0.20900
C3765       C  0.95097699  0.23899255  0.02056725    -0.07500
C3766       C  0.96527618  0.26097024  0.01440200     0.13400
C3767       C  0.95204496  0.28363683  0.00312517    -0.24300
H3768       H  0.00262203  0.27809447  0.01152790     0.14700
H3769       H  0.95529950  0.20091476  0.03462536     0.14700
C3770       C  0.00521262  0.19405333  0.04012175    -0.24200
H3771       H  0.96552501  0.29928764  0.99910319     0.04900
H3772       H  0.93747702  0.29064242  0.01653970     0.08200
H3773       H  0.94268890  0.27834178  0.98503732     0.08200
H3774       H  0.02618716  0.19578883  0.04058640     0.08100
H3775       H  0.00008748  0.17839479  0.02715611     0.08100
H3776       H  0.99875541  0.18917984  0.05957297     0.04900
C3777       C  0.21685917  0.27817372  0.02040422    -0.20900
C3778       C  0.20138696  0.25649422  0.02005123    -0.07500
C3779       C  0.21461857  0.23293768  0.01741778     0.13400
C3780       C  0.24166322  0.23224462  0.01295377    -0.20900
C3781       C  0.25641202  0.25455550  0.01044970    -0.07500
C3782       C  0.24317592  0.27777261  0.01521231     0.13400
C3783       C  0.25551679  0.30342861  0.01320648    -0.24300
H3784       H  0.20769854  0.29646083  0.02243842     0.14700
H3785       H  0.25079397  0.21418742  0.00964166     0.14700
C3786       C  0.20072788  0.20816880  0.01824891    -0.24200
H3787       H  0.25010916  0.31518329  0.02969067     0.04900
H3788       H  0.24865994  0.31328998  0.99584351     0.08200
H3789       H  0.27639923  0.30235815  0.01294496     0.08200
H3790       H  0.20347334  0.19790144  0.00016810     0.08100
H3791       H  0.18014804  0.21071203  0.02152405     0.08100
H3792       H  0.20840673  0.19636775  0.03397863     0.04900
C3793       C  0.12575193  0.38626733  0.93871156    -0.20900
C3794       C  0.10531017  0.37829672  0.95368561    -0.07500
C3795       C  0.08633592  0.39607322  0.96045644     0.13400
C3796       C  0.09070507  0.42180095  0.95575495    -0.20900
C3797       C  0.11391921  0.42997353  0.94561897    -0.07500
C3798       C  0.12961806  0.41190562  0.93352426     0.13400
C3799       C  0.15163467  0.41900062  0.91674403    -0.24300
H3800       H  0.13908893  0.37246773  0.93140643     0.14700
H3801       H  0.07762460  0.43561742  0.96343300     0.14700
C3802       C  0.06256831  0.38860101  0.97450466    -0.24200
H3803       H  0.15089886  0.40773714  0.89906794     0.04900
H3804       H  0.16982895  0.41494200  0.92667152     0.08200
H3805       H  0.15088343  0.43919065  0.91092039     0.08200
H3806       H  0.06764583  0.37857893  0.99236919     0.08100
H3807       H  0.05065541  0.37624769  0.96242838     0.08100
H3808       H  0.05085466  0.40531167  0.97956646     0.04900
C3809       C  0.38930197  0.26007597  0.13576252    -0.20900
C3810       C  0.37005112  0.25292134  0.11911232    -0.07500
C3811       C  0.35771262  0.22933347  0.12238631     0.13400
C3812       C  0.36698893  0.21234972  0.14061064    -0.20900
C3813       C  0.38807699  0.21846567  0.15554066    -0.07500
C3814       C  0.39825183  0.24330029  0.15429821     0.13400
C3815       C  0.41962183  0.25186283  0.17111373    -0.24300
H3816       H  0.39819696  0.27843583  0.13340200     0.14700
H3817       H  0.35886830  0.19354792  0.14202098     0.14700
C3818       C  0.33613075  0.22106254  0.10555444    -0.24200
H3819       H  0.42562383  0.27158872  0.16689325     0.04900
H3820       H  0.43617973  0.23941014  0.16840188     0.08200
H3821       H  0.41349618  0.25098746  0.19116617     0.08200
H3822       H  0.34224667  0.22108069  0.08544453     0.08100
H3823       H  0.31975789  0.23403145  0.10796335     0.08100
H3824       H  0.32955218  0.20165144  0.11033963     0.04900
C3825       C  0.53262556  0.26987408  0.16348716    -0.20900
C3826       C  0.52617207  0.27116294  0.13768306    -0.07500
C3827       C  0.50136286  0.26369865  0.13019492     0.13400
C3828       C  0.48575813  0.25143745  0.14790842    -0.20900
C3829       C  0.49471508  0.24525412  0.17222305    -0.07500
C3830       C  0.51776384  0.25591547  0.18049638     0.13400
C3831       C  0.52776753  0.25068302  0.20658972    -0.24300
H3832       H  0.55116342  0.27641420  0.16952495     0.14700
H3833       H  0.46847787  0.24267485  0.14117419     0.14700
C3834       C  0.49219492  0.26511206  0.10306002    -0.24200
H3835       H  0.54661930  0.25948609  0.20982628     0.04900
H3836       H  0.52953763  0.23000341  0.21003295     0.08200
H3837       H  0.51427631  0.25902065  0.22003233     0.08200
H3838       H  0.47216076  0.25886103  0.10117741     0.08100
H3839       H  0.50378405  0.25257526  0.09085687     0.08100
H3840       H  0.49311401  0.28487994  0.09601528     0.04900
C3841       C  0.58446394  0.34884515  0.12357159    -0.20900
C3842       C  0.55901847  0.34218586  0.12783538    -0.07500
C3843       C  0.54226115  0.34095397  0.10667658     0.13400
C3844       C  0.55248077  0.34176613  0.08217826    -0.20900
C3845       C  0.57876153  0.34309542  0.07866910    -0.07500
C3846       C  0.59388182  0.35134223  0.09905412     0.13400
C3847       C  0.62048255  0.36106221  0.09540867    -0.24300
H3848       H  0.59714893  0.35235299  0.13932753     0.14700
H3849       H  0.54034008  0.33819899  0.06602808     0.14700
C3850       C  0.51392531  0.33812868  0.10934915    -0.24200
H3851       H  0.62224456  0.37999008  0.10426976     0.04900
H3852       H  0.62523012  0.36322361  0.07500850     0.08200
H3853       H  0.63427707  0.34792666  0.10450862     0.08200
H3854       H  0.50623438  0.35367108  0.12099458     0.08100
H3855       H  0.50938519  0.31980298  0.11850280     0.08100
H3856       H  0.50406286  0.33873461  0.09072039     0.04900
C3857       C  0.50012783  0.27374441  0.26564516    -0.20900
C3858       C  0.47854373  0.28729906  0.25605317    -0.07500
C3859       C  0.45860216  0.27184619  0.24706525     0.13400
C3860       C  0.46043736  0.24488729  0.24760475    -0.20900
C3861       C  0.48216249  0.23090640  0.25613975    -0.07500
C3862       C  0.50212928  0.24627628  0.26584089     0.13400
C3863       C  0.52602938  0.23393903  0.27531090    -0.24300
H3864       H  0.51643193  0.28474361  0.27146403     0.14700
H3865       H  0.44448428  0.23460057  0.23997560     0.14700
C3866       C  0.43521332  0.28399191  0.23583844    -0.24200
H3867       H  0.53992875  0.24815074  0.28212805     0.04900
H3868       H  0.53496859  0.22303107  0.25977930     0.08200
H3869       H  0.52151156  0.22089683  0.29123652     0.08200
H3870       H  0.44020146  0.29467182  0.21837148     0.08100
H3871       H  0.42674227  0.29716178  0.24978366     0.08100
H3872       H  0.42057346  0.26978008  0.23090543     0.04900
C3873       C  0.42483666  0.35778666  0.13172035    -0.20900
C3874       C  0.44661199  0.37260278  0.12867782    -0.07500
C3875       C  0.45212742  0.38327819  0.10450063     0.13400
C3876       C  0.43676726  0.37709782  0.08367837    -0.20900
C3877       C  0.41531287  0.36191520  0.08676610    -0.07500
C3878       C  0.40878682  0.35284636  0.11112199     0.13400
C3879       C  0.38507694  0.33753452  0.11523934    -0.24300
H3880       H  0.42029707  0.35020514  0.15030431     0.14700
H3881       H  0.44170444  0.38376696  0.06484792     0.14700
C3882       C  0.47428735  0.40083954  0.10026130    -0.24200
H3883       H  0.38280660  0.33179093  0.13539331     0.04900
H3884       H  0.38576045  0.32016076  0.10362825     0.08200
H3885       H  0.36828140  0.34899982  0.10963293     0.08200
H3886       H  0.49223053  0.39194184  0.10670617     0.08100
H3887       H  0.47116376  0.41866129  0.11076949     0.08100
H3888       H  0.47649979  0.40594126  0.07992887     0.04900
C3889       C  0.48190295  0.52297020  0.29249264    -0.20900
C3890       C  0.48782643  0.53729335  0.27011970    -0.07500
C3891       C  0.48906595  0.52274368  0.24760460     0.13400
C3892       C  0.48765737  0.49550338  0.24864519    -0.20900
C3893       C  0.48445523  0.48118195  0.27145690    -0.07500
C3894       C  0.48052071  0.49586569  0.29347177     0.13400
C3895       C  0.47622024  0.48334993  0.31877395    -0.24300
H3896       H  0.48048203  0.53303223  0.31027892     0.14700
H3897       H  0.49097283  0.48512440  0.23142571     0.14700
C3898       C  0.49288692  0.53551484  0.22233195    -0.24200
H3899       H  0.45803419  0.49016316  0.32687291     0.04900
H3900       H  0.49193761  0.48825102  0.33189090     0.08200
H3901       H  0.47514855  0.46243434  0.31733144     0.08200
H3902       H  0.50188217  0.52242609  0.20861366     0.08100
H3903       H  0.50522226  0.55240581  0.22390872     0.08100
H3904       H  0.47418396  0.54151515  0.21465802     0.04900
C3905       C  0.50293976  0.99612539  0.25733077    -0.20900
C3906       C  0.50869303  0.98044655  0.23606349    -0.07500
C3907       C  0.51632373  0.99363129  0.21400482     0.13400
C3908       C  0.51803190  0.02075686  0.21368461    -0.20900
C3909       C  0.51114154  0.03674864  0.23449573    -0.07500
C3910       C  0.50389121  0.02343842  0.25683666     0.13400
C3911       C  0.49582428  0.03787709  0.27990640    -0.24300
H3912       H  0.49613905  0.98687963  0.27436879     0.14700
H3913       H  0.52371636  0.02957363  0.19602743     0.14700
C3914       C  0.52098541  0.97913018  0.19002667    -0.24200
H3915       H  0.49062656  0.02499401  0.29577667     0.04900
H3916       H  0.47901105  0.04973886  0.27529515     0.08200
H3917       H  0.51159964  0.05017846  0.28635564     0.08200
H3918       H  0.50346034  0.96888928  0.18444934     0.08100
H3919       H  0.53652760  0.96523820  0.19313990     0.08100
H3920       H  0.52645170  0.99181696  0.17410228     0.04900
C3921       C  0.54300986  0.77112433  0.22718258    -0.20900
C3922       C  0.52366396  0.78458797  0.23971777    -0.07500
C3923       C  0.50248049  0.76914692  0.24778418     0.13400
C3924       C  0.50293181  0.74196753  0.24657243    -0.20900
C3925       C  0.52312199  0.72841413  0.23585340    -0.07500
C3926       C  0.54239716  0.74402776  0.22421274     0.13400
C3927       C  0.56300099  0.73251323  0.20822520    -0.24300
H3928       H  0.55915495  0.78162894  0.22005154     0.14700
H3929       H  0.48757270  0.73116722  0.25481349     0.14700
C3930       C  0.47826405  0.78111290  0.25689443    -0.24200
H3931       H  0.56294108  0.74167899  0.18921468     0.04900
H3932       H  0.56022417  0.71195297  0.20519162     0.08200
H3933       H  0.58175948  0.73562031  0.21728296     0.08200
H3934       H  0.46992948  0.79227631  0.24117706     0.08100
H3935       H  0.48146291  0.79350959  0.27331575     0.08100
H3936       H  0.46395638  0.76677518  0.26257001     0.04900
C3937       C  0.06207703  0.17285249  0.90593842    -0.20900
C3938       C  0.08849422  0.17566098  0.90745353    -0.07500
C3939       C  0.10223394  0.18046929  0.88479688     0.13400
C3940       C  0.08895380  0.18648637  0.86268922    -0.20900
C3941       C  0.06241253  0.18580432  0.86159560    -0.07500
C3942       C  0.04874957  0.17802629  0.88344182     0.13400
C3943       C  0.02024913  0.17662158  0.88406674    -0.24300
H3944       H  0.05162445  0.16790949  0.92285631     0.14700
H3945       H  0.09958376  0.19198203  0.84600524     0.14700
C3946       C  0.13080222  0.18012140  0.88330166    -0.24200
H3947       H  0.01299554  0.17118393  0.90307625     0.04900
H3948       H  0.01305638  0.16249126  0.87048074     0.08200
H3949       H  0.01247873  0.19547153  0.87939965     0.08200
H3950       H  0.13837350  0.16248852  0.89207554     0.08100
H3951       H  0.13853808  0.19707995  0.89268749     0.08100
H3952       H  0.13763042  0.18074593  0.86340983     0.04900
C3953       C  0.93143281  0.13168538  0.85636607    -0.20900
C3954       C  0.94560163  0.15356930  0.85027429    -0.07500
C3955       C  0.94243628  0.17541017  0.86536985     0.13400
C3956       C  0.92749619  0.17382907  0.88728542    -0.20900
C3957       C  0.91536360  0.15125161  0.89457571    -0.07500
C3958       C  0.91640635  0.13024086  0.87831847     0.13400
C3959       C  0.90310744  0.10583467  0.88477576    -0.24300
H3960       H  0.93318898  0.11504989  0.84458266     0.14700
H3961       H  0.92564639  0.19034013  0.89918472     0.14700
C3962       C  0.95516710  0.20024783  0.85923573    -0.24200
H3963       H  0.90680805  0.09099744  0.87042729     0.04900
H3964       H  0.88229741  0.10901402  0.88549394     0.08200
H3965       H  0.90985170  0.09865104  0.90344335     0.08200
H3966       H  0.94831086  0.20739154  0.84061933     0.08100
H3967       H  0.97596954  0.19783375  0.85851100     0.08100
H3968       H  0.95099126  0.21494551  0.87361030     0.04900
C3969       C  0.89148715  0.28233177  0.85738551    -0.20900
C3970       C  0.90926784  0.29859361  0.86862955    -0.07500
C3971       C  0.91862202  0.29311449  0.89314709     0.13400
C3972       C  0.90893113  0.27236487  0.90636110    -0.20900
C3973       C  0.89045035  0.25654372  0.89567216    -0.07500
C3974       C  0.88187186  0.26128224  0.87069096     0.13400
C3975       C  0.86349817  0.24378760  0.85772955    -0.19500
H3976       H  0.88513171  0.28614815  0.83817686     0.14700
H3977       H  0.91574093  0.26861973  0.92543849     0.14700
C3978       C  0.93962811  0.30835423  0.90515219    -0.24200
H3979       H  0.86007977  0.24955132  0.83772385     0.04900
H3980       H  0.84496380  0.24399849  0.86764465     0.08200
H3981       H  0.87126580  0.22422967  0.85777859     0.08200
H3982       H  0.93317031  0.32803584  0.90845199     0.08100
H3983       H  0.95653188  0.30844754  0.89262790     0.08100
H3984       H  0.94556180  0.30032607  0.92376103     0.04900
C3985       C  0.96604348  0.27802151  0.73054170    -0.20900
C3986       C  0.98903319  0.29067548  0.73746065    -0.07500
C3987       C  0.01012160  0.27422572  0.74104815     0.13400
C3988       C  0.00732505  0.24710566  0.74014772    -0.20900
C3989       C  0.98395308  0.23450504  0.73514179    -0.07500
C3990       C  0.96323886  0.25089014  0.72973061     0.13400
C3991       C  0.93751979  0.23969737  0.72476479    -0.24300
H3992       H  0.94913876  0.28954214  0.72833680     0.14700
H3993       H  0.02343848  0.23551737  0.74525690     0.14700
C3994       C  0.03561559  0.28538310  0.74700869    -0.24200
H3995       H  0.92309082  0.25456826  0.72084636     0.04900
H3996       H  0.93124309  0.22857222  0.74153380     0.08200
H3997       H  0.93850859  0.22704793  0.70806986     0.08200
H3998       H  0.03420409  0.29789186  0.76364974     0.08100
H3999       H  0.04213340  0.29688904  0.73060823     0.08100
H4000       H  0.05005359  0.27054133  0.75099109     0.04900
C4001       C  0.99762972  0.26628612  0.86142913    -0.20900
C4002       C  0.01122405  0.27732100  0.84148816    -0.07500
C4003       C  0.03614669  0.26921527  0.83639175     0.13400
C4004       C  0.04750995  0.25157025  0.85251441    -0.20900
C4005       C  0.03590588  0.24448231  0.87545760    -0.07500
C4006       C  0.00996517  0.25096802  0.87942394     0.13400
C4007       C  0.99573306  0.24474247  0.90352148    -0.24300
H4008       H  0.97845377  0.27279671  0.86510643     0.14700
H4009       H  0.06697421  0.24611749  0.84870548     0.14700
C4010       C  0.05207582  0.28043685  0.81551167    -0.24200
H4011       H  0.97552166  0.25069869  0.90240687     0.04900
H4012       H  0.00428172  0.25492698  0.91976543     0.08200
H4013       H  0.99593062  0.22409703  0.90727771     0.08200
H4014       H  0.06930854  0.28925227  0.82376980     0.08100
H4015       H  0.04180008  0.29521680  0.80472150     0.08100
H4016       H  0.05800260  0.26539168  0.80218153     0.04900
C4017       C  0.03400803  0.52640758  0.76647944    -0.20900
C4018       C  0.02206656  0.53949223  0.78701628    -0.07500
C4019       C  0.00891224  0.52321628  0.80406306     0.13400
C4020       C  0.00674350  0.49664604  0.79986589    -0.20900
C4021       C  0.01776642  0.48318727  0.77926471    -0.07500
C4022       C  0.03244139  0.49904803  0.76273037     0.13400
C4023       C  0.04699703  0.48775018  0.74116733    -0.24300
H4024       H  0.04416539  0.53765265  0.75268521     0.14700
H4025       H  0.99620723  0.48608784  0.81388635     0.14700
C4026       C  0.99630873  0.53351030  0.82745462    -0.24200
H4027       H  0.06752384  0.49186592  0.74355509     0.04900
H4028       H  0.04031416  0.49616563  0.72300955     0.08200
H4029       H  0.04455105  0.46693589  0.74017901     0.08200
H4030       H  0.97545193  0.53183231  0.82538080     0.08100
H4031       H  0.00103186  0.55361818  0.83098423     0.08100
H4032       H  0.00265088  0.52255818  0.84436853     0.04900
C4033       C  0.00122699  0.99622003  0.74261509    -0.20900
C4034       C  0.99405386  0.98420274  0.72001353    -0.07500
C4035       C  0.98527309  0.00153631  0.70046859     0.13400
C4036       C  0.98901520  0.02849154  0.70191593    -0.20900
C4037       C  0.99912676  0.04027584  0.72354368    -0.07500
C4038       C  0.00372167  0.02332984  0.74460033     0.13400
C4039       C  0.01082850  0.03391917  0.76991255    -0.24300
H4040       H  0.00537047  0.98430264  0.75878637     0.14700
H4041       H  0.98407067  0.04028323  0.68576168     0.14700
C4042       C  0.97075466  0.99225443  0.67772446    -0.24200
H4043       H  0.01241257  0.01896572  0.78470632     0.04900
H4044       H  0.99578738  0.04723464  0.77587182     0.08200
H4045       H  0.02929836  0.04380942  0.76886580     0.08200
H4046       H  0.96589930  0.97187856  0.67908422     0.08100
H4047       H  0.98183814  0.99585439  0.66022651     0.08100
H4048       H  0.95247201  0.00266470  0.67628718     0.04900
C4049       C  0.04308077  0.74826600  0.76397853    -0.20900
C4050       C  0.02218495  0.73348216  0.75624068    -0.07500
C4051       C  0.00015143  0.74808822  0.74892620     0.13400
C4052       C  0.00033099  0.77536188  0.74738349    -0.20900
C4053       C  0.02180407  0.79011589  0.75341198    -0.07500
C4054       C  0.04303882  0.77558945  0.76294256     0.13400
C4055       C  0.06709374  0.78863738  0.77093211    -0.24300
H4056       H  0.06035681  0.73850959  0.76946583     0.14700
H4057       H  0.98403463  0.78507365  0.73934640     0.14700
C4058       C  0.97594062  0.73482900  0.74199417    -0.24200
H4059       H  0.07170534  0.78326632  0.79079401     0.04900
H4060       H  0.06541228  0.80955877  0.77012599     0.08200
H4061       H  0.08294995  0.78267580  0.75848743     0.08200
H4062       H  0.96993926  0.72270605  0.75813107     0.08100
H4063       H  0.97869298  0.72312865  0.72488168     0.08100
H4064       H  0.96031364  0.74838795  0.73783526     0.04900
C4065       C  0.38467626  0.08283577  0.42197435    -0.20900
C4066       C  0.38944425  0.08151729  0.39576812    -0.07500
C4067       C  0.40517670  0.10023163  0.38445853     0.13400
C4068       C  0.41527896  0.11956981  0.39959114    -0.20900
C4069       C  0.41038388  0.12078084  0.42570451    -0.07500
C4070       C  0.39495403  0.10200018  0.43704255     0.13400
C4071       C  0.39006384  0.10123533  0.46518559    -0.24300
H4072       H  0.37279230  0.06866475  0.43092160     0.14700
H4073       H  0.42761262  0.13363180  0.39106311     0.14700
C4074       C  0.41154220  0.10027747  0.35660082    -0.24200
H4075       H  0.37884740  0.08437027  0.47091187     0.04900
H4076       H  0.37913423  0.11821901  0.47082039     0.08200
H4077       H  0.40836499  0.10057423  0.47560813     0.08200
H4078       H  0.39391725  0.10207338  0.34515566     0.08100
H4079       H  0.42172594  0.08256894  0.35168043     0.08100
H4080       H  0.42406599  0.11635226  0.35133347     0.04900
C4081       C  0.43246610  0.01112188  0.24139831    -0.20900
C4082       C  0.42301666  0.02420424  0.22029967    -0.07500
C4083       C  0.39836430  0.01870781  0.21125161     0.13400
C4084       C  0.38221274  0.00399873  0.22626089    -0.20900
C4085       C  0.38987768  0.99661387  0.25067469    -0.07500
C4086       C  0.41601745  0.99717591  0.25681378     0.13400
C4087       C  0.42638539  0.98505275  0.28060128    -0.24300
H4088       H  0.45160146  0.01470854  0.24791961     0.14700
H4089       H  0.36245008  0.00242889  0.22076244     0.14700
C4090       C  0.38741599  0.03113055  0.18786218    -0.24200
H4091       H  0.44272158  0.97272267  0.27583699     0.04900
H4092       H  0.41194609  0.97307649  0.29016809     0.08200
H4093       H  0.43299858  0.99986975  0.29385700     0.08200
H4094       H  0.40125341  0.04362815  0.17821067     0.08100
H4095       H  0.37071408  0.04281977  0.19308973     0.08100
H4096       H  0.38128043  0.01635031  0.17430978     0.04900
C4097       C  0.32169224  0.93209863  0.25818372    -0.20900
C4098       C  0.30905479  0.92630477  0.28092030    -0.07500
C4099       C  0.31850403  0.90629608  0.29557138     0.13400
C4100       C  0.34431951  0.90117960  0.29418072    -0.20900
C4101       C  0.35987073  0.91379703  0.27626047    -0.07500
C4102       C  0.34775286  0.92708287  0.25618929     0.13400
C4103       C  0.36173494  0.93639185  0.23321325    -0.24300
H4104       H  0.31295143  0.94502681  0.24469424     0.14700
H4105       H  0.35219207  0.88818367  0.30806668     0.14700
C4106       C  0.30264779  0.89367138  0.31561341    -0.24200
H4107       H  0.34878354  0.94515136  0.21899456     0.04900
H4108       H  0.37170215  0.92039755  0.22408408     0.08200
H4109       H  0.37551306  0.95088013  0.23899078     0.08200
H4110       H  0.28274940  0.90064172  0.31499789     0.08100
H4111       H  0.31069645  0.89754299  0.33466781     0.08100
H4112       H  0.30249693  0.87291711  0.31244591     0.04900
C4113       C  0.32778196  0.17806420  0.39419950    -0.20900
C4114       C  0.31709679  0.19450174  0.37600524    -0.07500
C4115       C  0.31661086  0.18708031  0.35040717     0.13400
C4116       C  0.32195202  0.16191413  0.34446502    -0.20900
C4117       C  0.32774653  0.14414156  0.36359189    -0.07500
C4118       C  0.33259082  0.15269916  0.38840522     0.13400
C4119       C  0.34208012  0.13523662  0.40892869    -0.24300
H4120       H  0.32912391  0.18397131  0.41380167     0.14700
H4121       H  0.31952456  0.15581563  0.32502180     0.14700
C4122       C  0.30904369  0.20491182  0.32932695    -0.24200
H4123       H  0.34696308  0.14561598  0.42652184     0.04900
H4124       H  0.35938703  0.12559331  0.40217175     0.08200
H4125       H  0.32738645  0.12111950  0.41382230     0.08200
H4126       H  0.30639203  0.22455948  0.33614597     0.08100
H4127       H  0.29110689  0.19834954  0.32046687     0.08100
H4128       H  0.32419401  0.20532117  0.31473173     0.04900
C4129       C  0.30890105  0.16735992  0.50628034    -0.20900
C4130       C  0.29429980  0.18906575  0.50938253    -0.07500
C4131       C  0.28256753  0.19355169  0.53302892     0.13400
C4132       C  0.27990319  0.17353705  0.55013096    -0.20900
C4133       C  0.28864043  0.14953680  0.54353265    -0.07500
C4134       C  0.30666337  0.14744911  0.52361239     0.13400
C4135       C  0.32257603  0.12428972  0.51914647    -0.24300
H4136       H  0.31929445  0.16454856  0.48878860     0.14700
H4137       H  0.26780370  0.17594640  0.56654189     0.14700
C4138       C  0.26982671  0.21813709  0.53925408    -0.24200
H4139       H  0.34293747  0.12960979  0.51927169     0.04900
H4140       H  0.31792913  0.11617444  0.50035870     0.08200
H4141       H  0.32000778  0.10989430  0.53415106     0.08200
H4142       H  0.24926806  0.21495428  0.54248320     0.08100
H4143       H  0.27200399  0.23204693  0.52379355     0.08100
H4144       H  0.27844169  0.22614575  0.55668028     0.04900
C4145       C  0.15854586  0.13082922  0.66057616    -0.20900
C4146       C  0.15583640  0.10827594  0.64708433    -0.07500
C4147       C  0.13233821  0.09541858  0.64792126     0.13400
C4148       C  0.11337563  0.10349882  0.66457925    -0.20900
C4149       C  0.11679373  0.12467580  0.68005678    -0.07500
C4150       C  0.13920754  0.13947487  0.67682513     0.13400
C4151       C  0.14350799  0.16390684  0.69079072    -0.24300
H4152       H  0.17625112  0.14115870  0.65917625     0.14700
H4153       H  0.09588803  0.09279705  0.66586453     0.14700
C4154       C  0.12697448  0.07323572  0.63103256    -0.24200
H4155       H  0.16210551  0.17254420  0.68597528     0.04900
H4156       H  0.14330206  0.16042403  0.71155074     0.08200
H4157       H  0.12855173  0.17782725  0.68552527     0.08200
H4158       H  0.13922233  0.05703099  0.63649469     0.08100
H4159       H  0.13053330  0.07852689  0.61094372     0.08100
H4160       H  0.10690773  0.06701926  0.63259273     0.04900
C4161       C  0.24391986  0.03681025  0.47184013    -0.20900
C4162       C  0.25404074  0.01430158  0.48272988    -0.07500
C4163       C  0.26068848  0.99511880  0.46525271     0.13400
C4164       C  0.25892298  0.99955240  0.43829720    -0.20900
C4165       C  0.25057082  0.02290765  0.42743820    -0.07500
C4166       C  0.24238945  0.04134927  0.44512588     0.13400
C4167       C  0.23347849  0.06684994  0.43574044    -0.24300
H4168       H  0.23868004  0.05195659  0.48451513     0.14700
H4169       H  0.26589368  0.98516596  0.42561480     0.14700
C4170       C  0.27094560  0.97039284  0.47506791    -0.24200
H4171       H  0.22753912  0.07925734  0.45157825     0.04900
H4172       H  0.21699024  0.06438204  0.42285103     0.08200
H4173       H  0.24897251  0.07656194  0.42530927     0.08200
H4174       H  0.25659994  0.96122867  0.48747747     0.08100
H4175       H  0.28852978  0.97372177  0.48618209     0.08100
H4176       H  0.27549322  0.95724578  0.45938231     0.04900
C4177       C  0.11331751  0.00713182  0.60909421    -0.20900
C4178       C  0.13226821  0.99875258  0.59280808    -0.07500
C4179       C  0.12977961  0.97509226  0.58087974     0.13400
C4180       C  0.10996708  0.95898954  0.58828183    -0.20900
C4181       C  0.09273871  0.96604942  0.60739872    -0.07500
C4182       C  0.09322764  0.99143509  0.61626640     0.13400
C4183       C  0.07368714  0.00224932  0.63408593    -0.24300
H4184       H  0.11483894  0.02574773  0.61711268     0.14700
H4185       H  0.10917414  0.94010398  0.58043324     0.14700
C4186       C  0.14886953  0.96611907  0.56168733    -0.24200
H4187       H  0.07633556  0.02289752  0.63692112     0.04900
H4188       H  0.07525666  0.99320469  0.65304772     0.08200
H4189       H  0.05438444  0.99954849  0.62608608     0.08200
H4190       H  0.16804936  0.96531468  0.57040720     0.08100
H4191       H  0.14912262  0.97930091  0.54522789     0.08100
H4192       H  0.14419528  0.94695702  0.55452558     0.04900
C4193       C  0.36977464  0.07040425  0.55664432    -0.20900
C4194       C  0.35386468  0.08488140  0.57208529    -0.07500
C4195       C  0.36085515  0.10972246  0.57875073     0.13400
C4196       C  0.38230518  0.12043022  0.56751644    -0.20900
C4197       C  0.39728124  0.10659054  0.55053886    -0.07500
C4198       C  0.39184008  0.08076648  0.54620333     0.13400
C4199       C  0.40835243  0.06430753  0.52980190    -0.24300
H4200       H  0.36433637  0.05120324  0.55197935     0.14700
H4201       H  0.38707005  0.13996204  0.57151213     0.14700
C4202       C  0.34502073  0.12551847  0.59643523    -0.24200
H4203       H  0.40048665  0.04492859  0.52787426     0.04900
H4204       H  0.42752132  0.06247868  0.53840047     0.08200
H4205       H  0.40993296  0.07259909  0.51054361     0.08200
H4206       H  0.34440673  0.11635029  0.61541785     0.08100
H4207       H  0.32545062  0.12757447  0.58883760     0.08100
H4208       H  0.35300988  0.14478965  0.59884889     0.04900
C4209       C  0.10354134  0.00061844  0.71626865    -0.20900
C4210       C  0.08302484  0.98696728  0.72601771    -0.07500
C4211       C  0.07644510  0.98967955  0.75172170     0.13400
C4212       C  0.09143416  0.00462175  0.76735230    -0.20900
C4213       C  0.11501240  0.01388100  0.75902867    -0.07500
C4214       C  0.12044521  0.01312795  0.73257650     0.13400
C4215       C  0.14487993  0.02283393  0.72135475    -0.24300
H4216       H  0.10859480  0.99809764  0.69652205     0.14700
H4217       H  0.08627251  0.00572619  0.78719467     0.14700
C4218       C  0.05640957  0.97379531  0.76433259    -0.24200
H4219       H  0.14451918  0.02237534  0.70031837     0.04900
H4220       H  0.16108523  0.01084554  0.72756924     0.08200
H4221       H  0.14794412  0.04271483  0.72699165     0.08200
H4222       H  0.06564652  0.95976731  0.77712700     0.08100
H4223       H  0.04459168  0.96339587  0.75049745     0.08100
H4224       H  0.04411583  0.98606755  0.77603948     0.04900
C4225       C  0.24664133  0.97329737  0.71994736    -0.20900
C4226       C  0.26100798  0.99164855  0.73319505    -0.07500
C4227       C  0.27628376  0.00754808  0.71770209     0.13400
C4228       C  0.27598258  0.00530293  0.69053570    -0.20900
C4229       C  0.25916363  0.98901515  0.67730168    -0.07500
C4230       C  0.24493950  0.97226992  0.69292383     0.13400
C4231       C  0.22630234  0.95397122  0.68157434    -0.24300
H4232       H  0.23479517  0.96072838  0.73083582     0.14700
H4233       H  0.28736266  0.01817658  0.67953374     0.14700
C4234       C  0.29147183  0.02833531  0.72972095    -0.24200
H4235       H  0.23093349  0.93446587  0.68804389     0.04900
H4236       H  0.22670137  0.95415388  0.66054781     0.08200
H4237       H  0.20680049  0.95882061  0.68786733     0.08200
H4238       H  0.30491957  0.02009937  0.74375718     0.08100
H4239       H  0.27854535  0.04170846  0.73949153     0.08100
H4240       H  0.30255259  0.03916146  0.71543678     0.04900
C4241       C  0.18185347  0.10643678  0.77883810    -0.20900
C4242       C  0.18764746  0.10581053  0.80480663    -0.07500
C4243       C  0.16943780  0.11621355  0.82099788     0.13400
C4244       C  0.14402487  0.11237354  0.81475760    -0.20900
C4245       C  0.13719290  0.10456697  0.79015068    -0.07500
C4246       C  0.15637004  0.10452716  0.77114771     0.13400
C4247       C  0.15065061  0.10206766  0.74326983    -0.24300
H4248       H  0.19680070  0.10287337  0.76522865     0.14700
H4249       H  0.12977398  0.11546294  0.82916028     0.14700
C4250       C  0.17656757  0.12664692  0.84645011    -0.24200
H4251       H  0.16815473  0.10293884  0.73160423     0.04900
H4252       H  0.13812004  0.11781075  0.73704794     0.08200
H4253       H  0.14136463  0.08371405  0.73945146     0.08200
H4254       H  0.19751317  0.12700135  0.84894133     0.08100
H4255       H  0.16813015  0.11491652  0.86176454     0.08100
H4256       H  0.16931182  0.14630390  0.84804023     0.04900
C4257       C  0.37505336  0.88517902  0.18331749    -0.20900
C4258       C  0.39876259  0.89746117  0.18221304    -0.07500
C4259       C  0.40211955  0.91749683  0.16451254     0.13400
C4260       C  0.38122320  0.92595875  0.15024049    -0.20900
C4261       C  0.35738817  0.91436813  0.15235265    -0.07500
C4262       C  0.35440371  0.89330428  0.16853087     0.13400
C4263       C  0.32920322  0.88013272  0.17114463    -0.24300
H4264       H  0.37224998  0.86973033  0.19661926     0.14700
H4265       H  0.38345447  0.94181833  0.13728135     0.14700
C4266       C  0.42758661  0.92959211  0.15975980    -0.24200
H4267       H  0.32999602  0.86453732  0.18534301     0.04900
H4268       H  0.32356826  0.87185444  0.15269508     0.08200
H4269       H  0.31451445  0.89386197  0.17729626     0.08200
H4270       H  0.44182234  0.91478775  0.15522053     0.08100
H4271       H  0.43382320  0.94039509  0.17650481     0.08100
H4272       H  0.42688376  0.94312591  0.14356440     0.04900
C4273       C  0.27310083  0.99112708  0.97318227    -0.20900
C4274       C  0.25960813  0.01170851  0.98386159    -0.07500
C4275       C  0.24927982  0.02924470  0.96601233     0.13400
C4276       C  0.25192549  0.02532322  0.93909073    -0.20900
C4277       C  0.26342703  0.00340271  0.92855638    -0.07500
C4278       C  0.27459599  0.98652973  0.94651720     0.13400
C4279       C  0.28722906  0.96263177  0.93754821    -0.24300
H4280       H  0.28099064  0.97716384  0.98606258     0.14700
H4281       H  0.24324055  0.03870538  0.92617901     0.14700
C4282       C  0.23411346  0.05139484  0.97531642    -0.24200
H4283       H  0.29524933  0.95142985  0.95356563     0.04900
H4284       H  0.30294805  0.96750145  0.92442696     0.08200
H4285       H  0.27329866  0.95052987  0.92751741     0.08200
H4286       H  0.24621352  0.06339522  0.98758296     0.08100
H4287       H  0.21759927  0.04455138  0.98643648     0.08100
H4288       H  0.22689069  0.06322945  0.95937367     0.04900
C4289       C  0.23596353  0.02376250  0.18999405    -0.20900
C4290       C  0.25493079  0.03784671  0.17716103    -0.07500
C4291       C  0.26925558  0.05462144  0.19258730     0.13400
C4292       C  0.26566088  0.05559931  0.21950842    -0.20900
C4293       C  0.24848812  0.03967263  0.23270511    -0.07500
C4294       C  0.23286494  0.02425839  0.21705537     0.13400
C4295       C  0.21361998  0.00710094  0.22924415    -0.24300
H4296       H  0.22474252  0.01064155  0.17903809     0.14700
H4297       H  0.27840752  0.06709241  0.23063555     0.14700
C4298       C  0.28960127  0.07069811  0.18067790    -0.24200
H4299       H  0.20275095  0.99625966  0.21490675     0.04900
H4300       H  0.19999416  0.01858238  0.24037912     0.08200
H4301       H  0.22322661  0.99336160  0.24207370     0.08200
H4302       H  0.28112895  0.08279008  0.16556914     0.08100
H4303       H  0.30450155  0.05849202  0.17228518     0.08100
H4304       H  0.29881540  0.08323299  0.19477224     0.04900
C4305       C  0.40096797  0.01287088  0.12077431    -0.20900
C4306       C  0.38188750  0.02228410  0.10480803    -0.07500
C4307       C  0.38362639  0.04708503  0.09506291     0.13400
C4308       C  0.40270960  0.06300974  0.10408286    -0.20900
C4309       C  0.42004945  0.05477991  0.12272041    -0.07500
C4310       C  0.42057879  0.02863477  0.12939974     0.13400
C4311       C  0.44086152  0.01714300  0.14613347    -0.24300
H4312       H  0.39988262  0.99341246  0.12734788     0.14700
H4313       H  0.40289097  0.08259046  0.09782727     0.14700
C4314       C  0.36437268  0.05737617  0.07647040    -0.24200
H4315       H  0.43857470  0.99632305  0.14809945     0.04900
H4316       H  0.44003715  0.02511193  0.16542410     0.08200
H4317       H  0.45983380  0.02074132  0.13776159     0.08200
H4318       H  0.34513205  0.05673511  0.08493873     0.08100
H4319       H  0.36466517  0.04593683  0.05891125     0.08100
H4320       H  0.36842247  0.07732677  0.07112104     0.04900
C4321       C  0.95990946  0.90678174  0.12796083    -0.20900
C4322       C  0.94746052  0.88663576  0.14023215    -0.07500
C4323       C  0.93991410  0.86554262  0.12581784     0.13400
C4324       C  0.94798943  0.86363719  0.10066009    -0.20900
C4325       C  0.96339053  0.88230915  0.08923513    -0.07500
C4326       C  0.96793756  0.90499628  0.10268366     0.13400
C4327       C  0.98153525  0.92729068  0.09104095    -0.24300
H4328       H  0.96475173  0.92354841  0.13865365     0.14700
H4329       H  0.94321439  0.84654100  0.09046202     0.14700
C4330       C  0.92318896  0.84481931  0.13602505    -0.24200
H4331       H  0.00193260  0.92295978  0.08850253     0.04900
H4332       H  0.98042132  0.94425634  0.10331566     0.08200
H4333       H  0.97272300  0.93226853  0.07252890     0.08200
H4334       H  0.91575178  0.84900259  0.15508858     0.08100
H4335       H  0.93385958  0.82668793  0.13672441     0.08100
H4336       H  0.90652251  0.84258678  0.12332033     0.04900
C4337       C  0.14739958  0.94119114  0.04923564    -0.20900
C4338       C  0.16354964  0.92987832  0.06725412    -0.07500
C4339       C  0.15770289  0.90540413  0.07670416     0.13400
C4340       C  0.13615980  0.89284154  0.06761586    -0.20900
C4341       C  0.12028847  0.90400644  0.04938323    -0.07500
C4342       C  0.12572559  0.92861272  0.04027981     0.13400
C4343       C  0.10951636  0.94110886  0.02020388    -0.24300
H4344       H  0.15210709  0.95973272  0.04171499     0.14700
H4345       H  0.13193063  0.87389014  0.07437779     0.14700
C4346       C  0.17486974  0.89166027  0.09511746    -0.24200
H4347       H  0.11725598  0.95979029  0.01436720     0.04900
H4348       H  0.09005294  0.94420698  0.02756376     0.08200
H4349       H  0.10862644  0.92894778  0.00314635     0.08200
H4350       H  0.17546795  0.90195555  0.11335055     0.08100
H4351       H  0.19429032  0.89016442  0.08711303     0.08100
H4352       H  0.16807397  0.87217328  0.09921359     0.04900
C4353       C  0.95984691  0.75708976  0.09761235    -0.20900
C4354       C  0.97868970  0.75661235  0.07903742    -0.07500
C4355       C  0.98854357  0.73321721  0.07072539     0.13400
C4356       C  0.98256427  0.71124015  0.08406642    -0.20900
C4357       C  0.96774223  0.71243201  0.10597341    -0.07500
C4358       C  0.95378868  0.73488382  0.11097690     0.13400
C4359       C  0.93298720  0.73610094  0.13045466    -0.24300
H4360       H  0.95106216  0.77489958  0.10276261     0.14700
H4361       H  0.99217657  0.69380302  0.07916489     0.14700
C4362       C  0.00658573  0.73148763  0.04866847    -0.24200
H4363       H  0.91515303  0.74263731  0.12123099     0.04900
H4364       H  0.93817754  0.74971052  0.14552982     0.08200
H4365       H  0.92904505  0.71739318  0.13915352     0.08200
H4366       H  0.02468436  0.74101707  0.05327013     0.08100
H4367       H  0.99807684  0.74064648  0.03170793     0.08100
H4368       H  0.01105358  0.71154712  0.04381754     0.04900
C4369       C  0.10798783  0.91601428  0.89005739    -0.20900
C4370       C  0.12609870  0.93121178  0.90232693    -0.07500
C4371       C  0.12966924  0.92798878  0.92883842     0.13400
C4372       C  0.11643670  0.90881145  0.94177190    -0.20900
C4373       C  0.09843510  0.89355362  0.92954648    -0.07500
C4374       C  0.09395573  0.89746673  0.90330436     0.13400
C4375       C  0.07522137  0.88151339  0.88888718    -0.24300
H4376       H  0.10527253  0.91817408  0.86978457     0.14700
H4377       H  0.11945821  0.90650600  0.96199749     0.14700
C4378       C  0.14628804  0.94506083  0.94454591    -0.24200
H4379       H  0.07538980  0.88598636  0.86828368     0.04900
H4380       H  0.05569802  0.88502991  0.89585897     0.08200
H4381       H  0.08002698  0.86116907  0.89129098     0.08200
H4382       H  0.15320655  0.96183130  0.93397572     0.08100
H4383       H  0.16273436  0.93415385  0.95203697     0.08100
H4384       H  0.13519566  0.95243955  0.96079530     0.04900
C4385       C  0.36177267  0.79786108  0.82734418    -0.20900
C4386       C  0.36287507  0.80084021  0.85378337    -0.07500
C4387       C  0.38008973  0.81831331  0.86437950     0.13400
C4388       C  0.39612127  0.83187178  0.84831273    -0.20900
C4389       C  0.39576435  0.82817747  0.82202325    -0.07500
C4390       C  0.37821542  0.81119413  0.81127452     0.13400
C4391       C  0.37636562  0.80751169  0.78303222    -0.24300
H4392       H  0.34817408  0.78479603  0.81926727     0.14700
H4393       H  0.40987337  0.84470480  0.85652399     0.14700
C4394       C  0.38132625  0.82338148  0.89243691    -0.24200
H4395       H  0.36058582  0.79456852  0.77794863     0.04900
H4396       H  0.39417029  0.79913293  0.77567934     0.08200
H4397       H  0.37284901  0.82601891  0.77355733     0.08200
H4398       H  0.38760095  0.80613760  0.90280429     0.08100
H4399       H  0.36235523  0.82937160  0.89918497     0.08100
H4400       H  0.39496551  0.83870535  0.89701407     0.04900
C4401       C  0.20921011  0.83113658  0.84607690    -0.20900
C4402       C  0.20711806  0.82588175  0.87207164    -0.07500
C4403       C  0.19758073  0.84480695  0.88852950     0.13400
C4404       C  0.19481845  0.86938620  0.87923193    -0.20900
C4405       C  0.20138722  0.87543285  0.85427498    -0.07500
C4406       C  0.20659892  0.85584786  0.83684873     0.13400
C4407       C  0.21133989  0.86083561  0.80907448    -0.24300
H4408       H  0.21556542  0.81635464  0.83340454     0.14700
H4409       H  0.18912362  0.88435646  0.89201073     0.14700
C4410       C  0.19241722  0.84025777  0.91633905    -0.24200
H4411       H  0.21604062  0.84319969  0.79872265     0.04900
H4412       H  0.22751065  0.87407900  0.80676097     0.08200
H4413       H  0.19404453  0.86899796  0.80014639     0.08200
H4414       H  0.21029521  0.83558994  0.92650761     0.08100
H4415       H  0.17851635  0.82465906  0.91856081     0.08100
H4416       H  0.18423836  0.85723193  0.92562726     0.04900
C4417       C  0.16844520  0.73332082  0.98221870    -0.20900
C4418       C  0.18823851  0.74675163  0.99518217    -0.07500
C4419       C  0.17954715  0.76690655  0.01050664     0.13400
C4420       C  0.15322520  0.77407253  0.01069814    -0.20900
C4421       C  0.13400795  0.76250478  0.99541319    -0.07500
C4422       C  0.14217555  0.74095623  0.98182522     0.13400
C4423       C  0.12361374  0.72684848  0.96554551    -0.24300
H4424       H  0.17401665  0.71776113  0.97015435     0.14700
H4425       H  0.14784803  0.79006859  0.02224313     0.14700
C4426       C  0.19821621  0.78194518  0.02573086    -0.24200
H4427       H  0.13277849  0.71074978  0.95567060     0.04900
H4428       H  0.11549043  0.73981092  0.95098762     0.08200
H4429       H  0.10806225  0.71923295  0.97751467     0.08200
H4430       H  0.21234180  0.79049880  0.01289825     0.08100
H4431       H  0.20813916  0.76930615  0.03941299     0.08100
H4432       H  0.18887654  0.79738837  0.03646021     0.04900
C4433       C  0.33803721  0.65331600  0.86262925    -0.20900
C4434       C  0.34618524  0.67798253  0.86845966    -0.07500
C4435       C  0.36308417  0.69035009  0.85164587     0.13400
C4436       C  0.37173531  0.67761738  0.83019874    -0.20900
C4437       C  0.36420776  0.65273068  0.82449513    -0.07500
C4438       C  0.34669120  0.64054085  0.84090153     0.13400
C4439       C  0.33685623  0.61428676  0.83584836    -0.24300
H4440       H  0.32439871  0.64413168  0.87497351     0.14700
H4441       H  0.38469229  0.68749638  0.81768591     0.14700
C4442       C  0.37143692  0.71743609  0.85524835    -0.24200
H4443       H  0.35282291  0.60056088  0.83579571     0.04900
H4444       H  0.32685339  0.61396132  0.81730269     0.08200
H4445       H  0.32316822  0.60799664  0.85057405     0.08200
H4446       H  0.38270778  0.71900425  0.87293371     0.08100
H4447       H  0.35464702  0.73013126  0.85598581     0.08100
H4448       H  0.38366413  0.72424938  0.83950227     0.04900
C4449       C  0.21792800  0.85433285  0.99862648    -0.20900
C4450       C  0.23500699  0.83420222  0.99902334    -0.07500
C4451       C  0.24997586  0.82966121  0.02090142     0.13400
C4452       C  0.25165849  0.84827339  0.03932734    -0.20900
C4453       C  0.23784057  0.87068693  0.03675076    -0.07500
C4454       C  0.21812509  0.87197894  0.01826592     0.13400
C4455       C  0.19733542  0.89154813  0.01851433    -0.24300
H4456       H  0.20533148  0.85695210  0.98252798     0.14700
H4457       H  0.26546043  0.84606172  0.05446694     0.14700
C4458       C  0.26553173  0.80611050  0.02478449    -0.24200
H4459       H  0.17860977  0.88192512  0.01802974     0.04900
H4460       H  0.19887791  0.90406544  0.00163116     0.08200
H4461       H  0.19763712  0.90299969  0.03595078     0.08200
H4462       H  0.28600733  0.81091455  0.02537152     0.08100
H4463       H  0.26208849  0.79199566  0.00990685     0.08100
H4464       H  0.26022487  0.79712804  0.04310050     0.04900
C4465       C  0.47256608  0.59720586  0.91107741    -0.20900
C4466       C  0.46165890  0.61784051  0.92376935    -0.07500
C4467       C  0.44145869  0.63131344  0.91167350     0.13400
C4468       C  0.43537288  0.62577637  0.88635217    -0.20900
C4469       C  0.44875351  0.60726462  0.87298642    -0.07500
C4470       C  0.46707937  0.59233469  0.88569058     0.13400
C4471       C  0.48269733  0.57274656  0.87203673    -0.24300
H4472       H  0.48741632  0.58621019  0.92018850     0.14700
H4473       H  0.42080819  0.63663531  0.87657883     0.14700
C4474       C  0.42658398  0.65196802  0.92461258    -0.24200
H4475       H  0.49751279  0.56425473  0.88447207     0.04900
H4476       H  0.49243787  0.58164324  0.85560110     0.08200
H4477       H  0.47032962  0.55714382  0.86547887     0.08200
H4478       H  0.43857009  0.66890637  0.92757292     0.08100
H4479       H  0.41922074  0.64491646  0.94304382     0.08100
H4480       H  0.41004696  0.65819765  0.91303258     0.04900
C4481       C  0.42845599  0.76394188  0.99700361    -0.20900
C4482       C  0.43791223  0.74364414  0.01171910    -0.07500
C4483       C  0.41873724  0.72765195  0.02282635     0.13400
C4484       C  0.39247903  0.72962429  0.01588499    -0.20900
C4485       C  0.38346775  0.74830806  0.99899808    -0.07500
C4486       C  0.40192688  0.76688913  0.99137453     0.13400
C4487       C  0.39421564  0.79029892  0.97683262    -0.24300
H4488       H  0.44191854  0.77689000  0.98848163     0.14700
H4489       H  0.37927291  0.71545170  0.02271004     0.14700
C4490       C  0.42579459  0.70691311  0.04127803    -0.24200
H4491       H  0.40059180  0.80732100  0.98731361     0.04900
H4492       H  0.37338931  0.79191770  0.97438867     0.08200
H4493       H  0.40324805  0.79030106  0.95787387     0.08200
H4494       H  0.44631425  0.70696178  0.04606458     0.08100
H4495       H  0.42073948  0.68823160  0.03322311     0.08100
H4496       H  0.41513509  0.70956492  0.05919409     0.04900
C4497       C  0.45212827  0.75340006  0.87680375    -0.20900
C4498       C  0.45409198  0.77791924  0.88707025    -0.07500
C4499       C  0.45364697  0.78070981  0.91372893     0.13400
C4500       C  0.45722415  0.75915524  0.92891698    -0.20900
C4501       C  0.46104208  0.73545834  0.91781582    -0.07500
C4502       C  0.45596763  0.73203542  0.89199883     0.13400
C4503       C  0.45641425  0.70607404  0.88033297    -0.24300
H4504       H  0.45062076  0.75080943  0.85651098     0.14700
H4505       H  0.46026465  0.76127774  0.94910999     0.14700
C4506       C  0.45042398  0.80606025  0.92627038    -0.24200
H4507       H  0.44155036  0.69416268  0.88923756     0.04900
H4508       H  0.47523130  0.69701230  0.88320937     0.08200
H4509       H  0.45254382  0.70687850  0.85964366     0.08200
H4510       H  0.43326917  0.81566419  0.91863575     0.08100
H4511       H  0.46726183  0.81814698  0.92324513     0.08100
H4512       H  0.44803845  0.80398670  0.94708725     0.04900
C4513       C  0.88341201  0.69515294  0.18103320    -0.20900
C4514       C  0.89821739  0.67750418  0.16786722    -0.07500
C4515       C  0.89510264  0.67509405  0.14131754     0.13400
C4516       C  0.87755000  0.69059338  0.12868831    -0.20900
C4517       C  0.86243920  0.70790628  0.14186638    -0.07500
C4518       C  0.86517193  0.71005684  0.16846975     0.13400
C4519       C  0.84953065  0.72842847  0.18366717    -0.24300
H4520       H  0.88616433  0.69726643  0.20127993     0.14700
H4521       H  0.87527795  0.68885622  0.10834004     0.14700
C4522       C  0.91078751  0.65696475  0.12587686    -0.24200
H4523       H  0.85547287  0.72871055  0.20387219     0.04900
H4524       H  0.82922626  0.72290684  0.18317327     0.08200
H4525       H  0.85174537  0.74786264  0.17589934     0.08200
H4526       H  0.90650534  0.63721059  0.13164485     0.08100
H4527       H  0.93125553  0.66085386  0.12865109     0.08100
H4528       H  0.90668088  0.65869907  0.10528129     0.04900
C4529       C  0.89897619  0.74761578  0.00768396    -0.20900
C4530       C  0.88189913  0.76701116  0.99943945    -0.07500
C4531       C  0.89293634  0.78558665  0.98334500     0.13400
C4532       C  0.91982350  0.78542698  0.97802239    -0.20900
C4533       C  0.93747846  0.76758992  0.98867847    -0.07500
C4534       C  0.92586407  0.74782136  0.00291560     0.13400
C4535       C  0.94213913  0.72780673  0.01507764    -0.24300
H4536       H  0.89146799  0.73291611  0.01994895     0.14700
H4537       H  0.92763213  0.80130945  0.96756232     0.14700
C4538       C  0.87673652  0.80682190  0.97327176    -0.24200
H4539       H  0.95389779  0.71837039  0.00046435     0.04900
H4540       H  0.93059902  0.71314526  0.02485472     0.08200
H4541       H  0.95455236  0.73671165  0.02936741     0.08200
H4542       H  0.86853233  0.81764225  0.98926284     0.08100
H4543       H  0.86110052  0.79896447  0.96159332     0.08100
H4544       H  0.88784979  0.82009753  0.96126694     0.04900
C4545       C  0.66512167  0.78212444  0.02159762    -0.20900
C4546       C  0.68571726  0.77194286  0.00703568    -0.07500
C4547       C  0.67820084  0.75464867  0.98803754     0.13400
C4548       C  0.65225940  0.74631306  0.98608789    -0.20900
C4549       C  0.63219584  0.75467516  0.00234388    -0.07500
C4550       C  0.63916896  0.77385714  0.01961271     0.13400
C4551       C  0.61953042  0.78470216  0.03708939    -0.24300
H4552       H  0.66962041  0.79577414  0.03615762     0.14700
H4553       H  0.64782059  0.73209104  0.97207341     0.14700
C4554       C  0.69768487  0.74418364  0.97025308    -0.24200
H4555       H  0.62773728  0.79925766  0.04977316     0.04900
H4556       H  0.61137640  0.76942315  0.04908504     0.08200
H4557       H  0.60414293  0.79370596  0.02576487     0.08200
H4558       H  0.70666117  0.75990526  0.95948391     0.08100
H4559       H  0.68922040  0.73078030  0.95650613     0.08100
H4560       H  0.71241271  0.73402932  0.98122803     0.04900
C4561       C  0.84331455  0.85230017  0.14329682    -0.20900
C4562       C  0.85047383  0.82819141  0.13449456    -0.07500
C4563       C  0.86754980  0.81366968  0.14949377     0.13400
C4564       C  0.87491536  0.82249028  0.17341540    -0.20900
C4565       C  0.86783344  0.84649328  0.18244457    -0.07500
C4566       C  0.85237376  0.86197929  0.16653961     0.13400
C4567       C  0.84550910  0.88874844  0.17348038    -0.24300
H4568       H  0.83037570  0.86362918  0.13192285     0.14700
H4569       H  0.88687196  0.81041068  0.18500925     0.14700
C4570       C  0.87814262  0.78860108  0.14086774    -0.24200
H4571       H  0.83384971  0.89808939  0.15853598     0.04900
H4572       H  0.86304659  0.90011807  0.17588804     0.08200
H4573       H  0.83431254  0.88883623  0.19126393     0.08200
H4574       H  0.88883338  0.79129798  0.12293831     0.08100
H4575       H  0.86257858  0.77480636  0.13808559     0.08100
H4576       H  0.89153027  0.78024215  0.15491237     0.04900
C4577       C  0.87007708  0.15131734  0.30895820    -0.20900
C4578       C  0.88297146  0.13181553  0.32200423    -0.07500
C4579       C  0.86954668  0.10970059  0.32884481     0.13400
C4580       C  0.84506676  0.10614398  0.31918320    -0.20900
C4581       C  0.83322314  0.12454611  0.30371371    -0.07500
C4582       C  0.84516471  0.14821060  0.30030659     0.13400
C4583       C  0.83238651  0.17043425  0.28752021    -0.24300
H4584       H  0.87975892  0.16888803  0.30457694     0.14700
H4585       H  0.83579903  0.08816536  0.32274872     0.14700
C4586       C  0.88019859  0.08956373  0.34624069    -0.24200
H4587       H  0.83372314  0.18725638  0.29996526     0.04900
H4588       H  0.81191013  0.16718527  0.28400473     0.08200
H4589       H  0.84199168  0.17472166  0.26928753     0.08200
H4590       H  0.89795911  0.09548791  0.35569615     0.08100
H4591       H  0.88360255  0.07190377  0.33546345     0.08100
H4592       H  0.86637547  0.08551670  0.36159628     0.04900
C4593       C  0.79688749  0.14889388  0.13045300    -0.20900
C4594       C  0.80712079  0.12641073  0.14031525    -0.07500
C4595       C  0.82553723  0.11294052  0.12636768     0.13400
C4596       C  0.83254900  0.12183534  0.10243336    -0.20900
C4597       C  0.82104167  0.14331917  0.09174914    -0.07500
C4598       C  0.80326157  0.15734096  0.10604134     0.13400
C4599       C  0.79121414  0.18127264  0.09591670    -0.24300
H4600       H  0.78298206  0.15921851  0.14140904     0.14700
H4601       H  0.84651986  0.11143016  0.09158730     0.14700
C4602       C  0.83785994  0.08914660  0.13651544    -0.24200
H4603       H  0.77920626  0.17694987  0.07920378     0.04900
H4604       H  0.80616793  0.19503935  0.09046726     0.08200
H4605       H  0.77884310  0.19037064  0.11025212     0.08200
H4606       H  0.82379049  0.07360146  0.13733192     0.08100
H4607       H  0.84575242  0.09261076  0.15571433     0.08100
H4608       H  0.85363883  0.08270928  0.12419716     0.04900
C4609       C  0.66086598  0.13683670  0.16328499    -0.20900
C4610       C  0.68686115  0.13238311  0.15931690    -0.07500
C4611       C  0.70062610  0.14942832  0.14377358     0.13400
C4612       C  0.68816090  0.17034042  0.13293375    -0.20900
C4613       C  0.66210424  0.17487024  0.13670169    -0.07500
C4614       C  0.64822547  0.15760244  0.15203872     0.13400
C4615       C  0.62008070  0.16036432  0.15628990    -0.24300
H4616       H  0.65039016  0.12400187  0.17546915     0.14700
H4617       H  0.69901909  0.18326882  0.12120616     0.14700
C4618       C  0.72871381  0.14644062  0.13916900    -0.24200
H4619       H  0.61241042  0.14478877  0.16824419     0.04900
H4620       H  0.60990847  0.15993189  0.13783797     0.08200
H4621       H  0.61607067  0.17842318  0.16614296     0.08200
H4622       H  0.73242775  0.12852108  0.12898150     0.08100
H4623       H  0.73911636  0.14646690  0.15748408     0.08100
H4624       H  0.73642175  0.16207526  0.12731896     0.04900
C4625       C  0.84385378  0.00371174  0.31528442    -0.20900
C4626       C  0.82261295  0.00033736  0.29977018    -0.07500
C4627       C  0.81395149  0.97564119  0.29447208     0.13400
C4628       C  0.82940602  0.95515728  0.30059201    -0.20900
C4629       C  0.85388754  0.95923762  0.31006825    -0.07500
C4630       C  0.85944263  0.98298608  0.32122602     0.13400
C4631       C  0.88199260  0.98726968  0.33822642    -0.24300
H4632       H  0.84957180  0.02262285  0.32073778     0.14700
H4633       H  0.82382989  0.93656642  0.29403555     0.14700
C4634       C  0.79011584  0.97041082  0.27961401    -0.24200
H4635       H  0.87554860  0.99586485  0.35624017     0.04900
H4636       H  0.89555849  0.00038248  0.32889696     0.08200
H4637       H  0.89174010  0.96934027  0.34334862     0.08200
H4638       H  0.77873793  0.98770773  0.27636534     0.08100
H4639       H  0.77813710  0.95656818  0.29001310     0.08100
H4640       H  0.79516982  0.96224279  0.26095661     0.04900
C4641       C  0.87715464  0.93434434  0.39051963    -0.20900
C4642       C  0.89186507  0.95119403  0.40479549    -0.07500
C4643       C  0.91853280  0.95100148  0.40217996     0.13400
C4644       C  0.92967121  0.93469116  0.38455113    -0.20900
C4645       C  0.91493506  0.91843067  0.36956223    -0.07500
C4646       C  0.88831216  0.91769794  0.37318104     0.13400
C4647       C  0.87135510  0.90016557  0.35839700    -0.24300
H4648       H  0.85674359  0.93413105  0.39306643     0.14700
H4649       H  0.95003913  0.93531658  0.38174979     0.14700
C4650       C  0.93527034  0.96881397  0.41686518    -0.24200
H4651       H  0.85105889  0.90255834  0.36352507     0.04900
H4652       H  0.87668691  0.88020924  0.36245612     0.08200
H4653       H  0.87313554  0.90403684  0.33781330     0.08200
H4654       H  0.93414453  0.96450939  0.43742783     0.08100
H4655       H  0.92922000  0.98865680  0.41333056     0.08100
H4656       H  0.95549840  0.96709284  0.41123278     0.04900
C4657       C  0.73172125  0.02142452  0.37521669    -0.20900
C4658       C  0.75108091  0.00516387  0.38431726    -0.07500
C4659       C  0.76080080  0.98779239  0.36571676     0.13400
C4660       C  0.75405523  0.98959711  0.33939557    -0.20900
C4661       C  0.73647888  0.00738225  0.32977676    -0.07500
C4662       C  0.72418281  0.02231806  0.34890889     0.13400
C4663       C  0.70357577  0.04074215  0.34164110    -0.24300
H4664       H  0.72333346  0.03471925  0.38831885     0.14700
H4665       H  0.76415767  0.97794244  0.32603434     0.14700
C4666       C  0.77908523  0.96692310  0.37278723    -0.24200
H4667       H  0.68603999  0.03613862  0.35234634     0.04900
H4668       H  0.69893373  0.03999873  0.32112456     0.08200
H4669       H  0.70956603  0.06026951  0.34638817     0.08200
H4670       H  0.78208381  0.96520581  0.39349576     0.08100
H4671       H  0.79762968  0.97019206  0.36336383     0.08100
H4672       H  0.77135632  0.94851170  0.36632305     0.04900
C4673       C  0.92428094  0.07192573  0.39813433    -0.20900
C4674       C  0.93181994  0.09659301  0.40439283    -0.07500
C4675       C  0.91532206  0.11138756  0.41961335     0.13400
C4676       C  0.89207591  0.10096565  0.42789825    -0.20900
C4677       C  0.88444080  0.07643832  0.42092688    -0.07500
C4678       C  0.90090266  0.06190436  0.40550465     0.13400
C4679       C  0.89471764  0.03533865  0.39708982    -0.24300
H4680       H  0.93674079  0.06016008  0.38694237     0.14700
H4681       H  0.87989032  0.11192347  0.44021375     0.14700
C4682       C  0.92185907  0.13798497  0.42740162    -0.24200
H4683       H  0.91011605  0.02688520  0.38554124     0.04900
H4684       H  0.87744031  0.03561149  0.38506091     0.08200
H4685       H  0.89193676  0.02282217  0.41380179     0.08200
H4686       H  0.92398102  0.15020377  0.41034764     0.08100
H4687       H  0.93974123  0.13791082  0.43857537     0.08100
H4688       H  0.90682227  0.14647446  0.43939058     0.04900
C4689       C  0.66411816  0.87528499  0.82666789    -0.20900
C4690       C  0.67598946  0.85707739  0.81120841    -0.07500
C4691       C  0.66278620  0.83458158  0.80557051     0.13400
C4692       C  0.63679392  0.83339594  0.81049788    -0.20900
C4693       C  0.62397416  0.85385588  0.82154325    -0.07500
C4694       C  0.63804971  0.87399050  0.83173874     0.13400
C4695       C  0.62567405  0.89397432  0.84775731    -0.24300
H4696       H  0.67437492  0.89210704  0.83230207     0.14700
H4697       H  0.62624292  0.81702624  0.80413292     0.14700
C4698       C  0.67523178  0.81224123  0.79304221    -0.24200
H4699       H  0.63975777  0.90762351  0.85530606     0.04900
H4700       H  0.61619588  0.88477482  0.86411669     0.08200
H4701       H  0.61143824  0.90469728  0.83652023     0.08200
H4702       H  0.69609366  0.81454847  0.79145866     0.08100
H4703       H  0.66702944  0.80949436  0.77384506     0.08100
H4704       H  0.67179769  0.79494468  0.80458608     0.04900
C4705       C  0.73455384  0.98325441  0.61368531    -0.20900
C4706       C  0.74972540  0.99259389  0.63420974    -0.07500
C4707       C  0.76647326  0.01240023  0.62731160     0.13400
C4708       C  0.76898826  0.02033916  0.60119492    -0.20900
C4709       C  0.75561968  0.00913199  0.58029058    -0.07500
C4710       C  0.73732715  0.99086053  0.58757489     0.13400
C4711       C  0.72156156  0.97813105  0.56770317    -0.24300
H4712       H  0.72082967  0.96868735  0.61787187     0.14700
H4713       H  0.78306014  0.03464421  0.59690175     0.14700
C4714       C  0.78276367  0.02439945  0.64728959    -0.24200
H4715       H  0.70813441  0.96422214  0.57604408     0.04900
H4716       H  0.73426018  0.96792091  0.55467077     0.08200
H4717       H  0.71047070  0.99249571  0.55691908     0.08200
H4718       H  0.79504239  0.00983064  0.65636968     0.08100
H4719       H  0.77050309  0.03316261  0.66191734     0.08100
H4720       H  0.79516241  0.03935604  0.63918678     0.04900
C4721       C  0.63175576  0.00201455  0.80680417    -0.20900
C4722       C  0.64341074  0.02319901  0.79509552    -0.07500
C4723       C  0.66986182  0.02231243  0.79059142     0.13400
C4724       C  0.68266171  0.99931845  0.79401346    -0.20900
C4725       C  0.66965440  0.97732420  0.80114659    -0.07500
C4726       C  0.64444364  0.97894526  0.80931078     0.13400
C4727       C  0.63019581  0.95631348  0.81923375    -0.24300
H4728       H  0.61194153  0.00251329  0.81211534     0.14700
H4729       H  0.70217696  0.99779388  0.78775657     0.14700
C4730       C  0.68459445  0.04458694  0.78055596    -0.24200
H4731       H  0.62297107  0.96032041  0.83856311     0.04900
H4732       H  0.64244751  0.93926467  0.82040287     0.08200
H4733       H  0.61391204  0.95217800  0.80654821     0.08200
H4734       H  0.68078994  0.06156138  0.79225360     0.08100
H4735       H  0.67939950  0.04812586  0.76052498     0.08100
H4736       H  0.70536232  0.04103904  0.78095915     0.04900
C4737       C  0.57955001  0.04677081  0.89823580    -0.20900
C4738       C  0.60489025  0.05276878  0.90357614    -0.07500
C4739       C  0.61748512  0.07111346  0.88867260     0.13400
C4740       C  0.60491338  0.08191164  0.86784640    -0.20900
C4741       C  0.58033895  0.07428617  0.86098526    -0.07500
C4742       C  0.56715272  0.05699634  0.87688225     0.13400
C4743       C  0.54018827  0.04908498  0.87154820    -0.24300
H4744       H  0.56990129  0.03293653  0.91001431     0.14700
H4745       H  0.61502996  0.09527173  0.85592889     0.14700
C4746       C  0.64422228  0.07933482  0.89455713    -0.24200
H4747       H  0.53236057  0.03727013  0.88716091     0.04900
H4748       H  0.53928292  0.03760808  0.85404484     0.08200
H4749       H  0.52794715  0.06610262  0.86948119     0.08200
H4750       H  0.65755551  0.06326053  0.89220161     0.08100
H4751       H  0.64521516  0.08636322  0.91431644     0.08100
H4752       H  0.65060169  0.09481654  0.88174316     0.04900
C4753       C  0.64368527  0.08044120  0.07575292    -0.20900
C4754       C  0.62295870  0.06700558  0.06580540    -0.07500
C4755       C  0.59872128  0.07815494  0.06593085     0.13400
C4756       C  0.59657416  0.10379001  0.07176399    -0.20900
C4757       C  0.61827862  0.11862098  0.07650213    -0.07500
C4758       C  0.64180440  0.10636799  0.08061747     0.13400
C4759       C  0.66517975  0.12037826  0.08896595    -0.24300
H4760       H  0.66226644  0.07160195  0.07644695     0.14700
H4761       H  0.57805449  0.11259039  0.06998956     0.14700
C4762       C  0.57517267  0.06391958  0.05840400    -0.24200
H4763       H  0.68099516  0.10725690  0.09379244     0.04900
H4764       H  0.66073918  0.13149839  0.10607673     0.08200
H4765       H  0.67193015  0.13299799  0.07358534     0.08200
H4766       H  0.57904221  0.04359247  0.05492189     0.08100
H4767       H  0.56692643  0.07248611  0.04095246     0.08100
H4768       H  0.56099843  0.06504682  0.07389772     0.04900
C4769       C  0.75385070  0.99402501  0.08926763    -0.20900
C4770       C  0.73372801  0.97804997  0.08216965    -0.07500
C4771       C  0.71902923  0.96831048  0.10325498     0.13400
C4772       C  0.72197129  0.97757866  0.12867682    -0.20900
C4773       C  0.74086280  0.99509266  0.13537522    -0.07500
C4774       C  0.75828660  0.00136867  0.11512587     0.13400
C4775       C  0.78253108  0.01559167  0.12007672    -0.24300
H4776       H  0.76591730  0.00162680  0.07446699     0.14700
H4777       H  0.70876320  0.97147677  0.14318382     0.14700
C4778       C  0.69930573  0.94802730  0.09960473    -0.24200
H4779       H  0.78236506  0.03382758  0.10956164     0.04900
H4780       H  0.79884482  0.00418299  0.11327331     0.08200
H4781       H  0.78587828  0.01910268  0.14046782     0.08200
H4782       H  0.69966851  0.93987261  0.08030212     0.08100
H4783       H  0.68012901  0.95584350  0.10345241     0.08100
H4784       H  0.70306683  0.93217616  0.11303077     0.04900
C4785       C  0.73479417  0.99901831  0.86733058    -0.20900
C4786       C  0.73991989  0.97972539  0.88579149    -0.07500
C4787       C  0.75426075  0.95904423  0.87677261     0.13400
C4788       C  0.76154290  0.95764580  0.85058202    -0.20900
C4789       C  0.75419710  0.97562900  0.83125977    -0.07500
C4790       C  0.74197484  0.99759255  0.84100174     0.13400
C4791       C  0.73655692  0.02033952  0.82470435    -0.24300
H4792       H  0.72426689  0.01552678  0.87342972     0.14700
H4793       H  0.77227076  0.94112324  0.84502179     0.14700
C4794       C  0.76051836  0.93740119  0.89438324    -0.24200
H4795       H  0.74677729  0.03692258  0.83251571     0.04900
H4796       H  0.71595525  0.02454251  0.82502936     0.08200
H4797       H  0.74281197  0.01795399  0.80488828     0.08200
H4798       H  0.74272203  0.92880253  0.90165282     0.08100
H4799       H  0.77194055  0.94439641  0.91058567     0.08100
H4800       H  0.77158273  0.92239934  0.88471206     0.04900
C4801       C  0.77591759  0.10574081  0.02944988    -0.20900
C4802       C  0.79187243  0.09494110  0.01102410    -0.07500
C4803       C  0.78978993  0.06883847  0.00617828     0.13400
C4804       C  0.76942800  0.05531778  0.01697879    -0.20900
C4805       C  0.75055077  0.06780798  0.03103836    -0.07500
C4806       C  0.75484566  0.09276587  0.03894779     0.13400
C4807       C  0.73658057  0.10659047  0.05591590    -0.24300
H4808       H  0.77860371  0.12521250  0.03482069     0.14700
H4809       H  0.76627638  0.03589185  0.01137672     0.14700
C4810       C  0.80730690  0.05583581  0.98792623    -0.24200
H4811       H  0.74679152  0.11338516  0.07300667     0.04900
H4812       H  0.72078412  0.09427593  0.06236354     0.08200
H4813       H  0.72844201  0.12312942  0.04562667     0.08200
H4814       H  0.82715835  0.05722144  0.99486496     0.08100
H4815       H  0.80580150  0.06488015  0.96892547     0.08100
H4816       H  0.80257259  0.03547236  0.98591559     0.04900
C4817       C  0.58217772  0.89063323  0.90412403    -0.20900
C4818       C  0.56533415  0.90639691  0.89051494    -0.07500
C4819       C  0.56859078  0.93298018  0.89180292     0.13400
C4820       C  0.58927109  0.94286804  0.90521417    -0.20900
C4821       C  0.60656837  0.92717789  0.91809182    -0.07500
C4822       C  0.60267583  0.90069422  0.91802325     0.13400
C4823       C  0.62051731  0.88297047  0.93173057    -0.24300
H4824       H  0.57982285  0.87028647  0.90317611     0.14700
H4825       H  0.59163686  0.96322891  0.90614979     0.14700
C4826       C  0.54985320  0.95125617  0.88003672    -0.24200
H4827       H  0.61546861  0.86284025  0.92850554     0.04900
H4828       H  0.61972961  0.88639746  0.95243754     0.08200
H4829       H  0.64019447  0.88598276  0.92487363     0.08200
H4830       H  0.53038918  0.94678528  0.88671949     0.08100
H4831       H  0.55059150  0.95028220  0.85908285     0.08100
H4832       H  0.55402146  0.97115442  0.88529152     0.04900
C4833       C  0.30142871  0.65214286  0.37831131    -0.20900
C4834       C  0.32617623  0.65975481  0.37154295    -0.07500
C4835       C  0.33928775  0.64554700  0.35289376     0.13400
C4836       C  0.32719351  0.62498236  0.34140329    -0.20900
C4837       C  0.30222447  0.61803174  0.34747052    -0.07500
C4838       C  0.28938544  0.63148183  0.36670407     0.13400
C4839       C  0.26277282  0.62476954  0.37463283    -0.24300
H4840       H  0.29131216  0.66240413  0.39286787     0.14700
H4841       H  0.33717447  0.61458319  0.32683498     0.14700
C4842       C  0.36612758  0.65136981  0.34490268    -0.24200
H4843       H  0.25533893  0.63781333  0.38929433     0.04900
H4844       H  0.26243401  0.60529008  0.38262535     0.08200
H4845       H  0.24995384  0.62581925  0.35801409     0.08200
H4846       H  0.37903740  0.65039314  0.36154870     0.08100
H4847       H  0.36683865  0.67039213  0.33593206     0.08100
H4848       H  0.37334293  0.63767752  0.33074093     0.04900
C4849       C  0.48430027  0.76197732  0.36005344    -0.20900
C4850       C  0.45913650  0.75784413  0.35188630    -0.07500
C4851       C  0.45531076  0.74823568  0.32698440     0.13400
C4852       C  0.47602544  0.73844386  0.31375802    -0.20900
C4853       C  0.50014865  0.73764002  0.32469107    -0.07500
C4854       C  0.50481843  0.75123010  0.34703794     0.13400
C4855       C  0.53111798  0.75232222  0.35819671    -0.24300
H4856       H  0.48785089  0.77050486  0.37833638     0.14700
H4857       H  0.47257117  0.72807413  0.29643363     0.14700
C4858       C  0.42992990  0.74595464  0.31402371    -0.24200
H4859       H  0.53169757  0.76417951  0.37548515     0.04900
H4860       H  0.54444823  0.76054913  0.34411962     0.08200
H4861       H  0.53761022  0.73298121  0.36337902     0.08200
H4862       H  0.41421792  0.75410604  0.32482915     0.08100
H4863       H  0.42565576  0.72570926  0.31046860     0.08100
H4864       H  0.43052573  0.75613571  0.29556060     0.04900
C4865       C  0.44666525  0.82958942  0.37575804    -0.20900
C4866       C  0.43471036  0.81864853  0.35462459    -0.07500
C4867       C  0.40885667  0.81180042  0.35604283     0.13400
C4868       C  0.39618761  0.81484985  0.37887737    -0.20900
C4869       C  0.40866171  0.82388344  0.40050180    -0.07500
C4870       C  0.43357978  0.83319743  0.39842201     0.13400
C4871       C  0.44606930  0.84844964  0.41899895    -0.24300
H4872       H  0.46602139  0.83636414  0.37435081     0.14700
H4873       H  0.37681079  0.80821008  0.38013017     0.14700
C4874       C  0.39397908  0.80010462  0.33464460    -0.24200
H4875       H  0.45016476  0.86773584  0.41157984     0.04900
H4876       H  0.46430769  0.83969255  0.42480464     0.08200
H4877       H  0.43380971  0.85055601  0.43590748     0.08200
H4878       H  0.40517872  0.79666269  0.31734476     0.08100
H4879       H  0.37749568  0.81220643  0.32958581     0.08100
H4880       H  0.38639738  0.78169910  0.34113516     0.04900
C4881       C  0.40150392  0.59844052  0.45079878    -0.20900
C4882       C  0.38067212  0.61244160  0.44172525    -0.07500
C4883       C  0.35995953  0.59972509  0.43084969     0.13400
C4884       C  0.35832419  0.57347435  0.43371698    -0.20900
C4885       C  0.37712302  0.55998758  0.44721773    -0.07500
C4886       C  0.40024458  0.57213262  0.45287366     0.13400
C4887       C  0.42334640  0.55790562  0.46198981    -0.24300
H4888       H  0.41851152  0.60808709  0.45712124     0.14700
H4889       H  0.34108121  0.56406211  0.42772406     0.14700
C4890       C  0.34014262  0.61368216  0.41573480    -0.24200
H4891       H  0.43963403  0.56233632  0.44940853     0.04900
H4892       H  0.42052318  0.53710171  0.46153702     0.08200
H4893       H  0.42814005  0.56370037  0.48160759     0.08200
H4894       H  0.34973981  0.62396362  0.40014689     0.08100
H4895       H  0.32983714  0.62734209  0.42780685     0.08100
H4896       H  0.32609617  0.60062378  0.40715526     0.04900
C4897       C  0.58427375  0.85036573  0.39276877    -0.20900
C4898       C  0.57965022  0.86658633  0.41320527    -0.07500
C4899       C  0.56059926  0.88507927  0.41120971     0.13400
C4900       C  0.54510439  0.88552001  0.38963768    -0.20900
C4901       C  0.54852249  0.86828096  0.36951591    -0.07500
C4902       C  0.56923554  0.85117548  0.37073991     0.13400
C4903       C  0.57597003  0.83398976  0.34906977    -0.24300
H4904       H  0.59926222  0.83638159  0.39443930     0.14700
H4905       H  0.52990593  0.89936035  0.38888791     0.14700
C4906       C  0.55606681  0.90442385  0.43157627    -0.24200
H4907       H  0.59369272  0.82319477  0.35292513     0.04900
H4908       H  0.57896768  0.84537570  0.33155717     0.08200
H4909       H  0.56063464  0.81999740  0.34600414     0.08200
H4910       H  0.56968289  0.90268084  0.44756343     0.08100
H4911       H  0.53655716  0.90227672  0.43915877     0.08100
H4912       H  0.55811262  0.92372570  0.42336516     0.04900
C4913       C  0.70784726  0.91587631  0.51623392    -0.20900
C4914       C  0.70695424  0.89338735  0.53022818    -0.07500
C4915       C  0.72609818  0.88859541  0.54885206     0.13400
C4916       C  0.74788799  0.90389618  0.54921753    -0.20900
C4917       C  0.75023067  0.92405521  0.53217332    -0.07500
C4918       C  0.72940674  0.93101561  0.51665626     0.13400
C4919       C  0.73042957  0.95350692  0.49905614    -0.24300
H4920       H  0.69286033  0.92033481  0.50281349     0.14700
H4921       H  0.76369238  0.89913121  0.56156394     0.14700
C4922       C  0.72409160  0.86744604  0.56813023    -0.24200
H4923       H  0.71224406  0.95644912  0.48873323     0.04900
H4924       H  0.74555906  0.95098937  0.48480887     0.08200
H4925       H  0.73434739  0.97069925  0.51016579     0.08200
H4926       H  0.72680530  0.84873525  0.55916883     0.08100
H4927       H  0.70531988  0.86828343  0.57758666     0.08100
H4928       H  0.73887715  0.86910732  0.58307798     0.04900
C4929       C  0.52665812  0.76456322  0.51217686    -0.20900
C4930       C  0.54239426  0.74531470  0.50193240    -0.07500
C4931       C  0.52942310  0.72375150  0.49263940     0.13400
C4932       C  0.50214508  0.72260887  0.49284842    -0.20900
C4933       C  0.48653117  0.74288680  0.50120952    -0.07500
C4934       C  0.49957614  0.76389914  0.51147515     0.13400
C4935       C  0.48483845  0.78673170  0.52004692    -0.24300
H4936       H  0.53566976  0.78170035  0.51856629     0.14700
H4937       H  0.49296610  0.70639744  0.48456581     0.14700
C4938       C  0.54430927  0.70266938  0.48075625    -0.24200
H4939       H  0.49750903  0.80173230  0.52751084     0.04900
H4940       H  0.47148504  0.78112665  0.53532185     0.08200
H4941       H  0.47390937  0.79486345  0.50390490     0.08200
H4942       H  0.55772481  0.69455719  0.49490267     0.08100
H4943       H  0.55520092  0.71003392  0.46430240     0.08100
H4944       H  0.53172534  0.68727661  0.47398190     0.04900
C4945       C  0.62544324  0.76288979  0.36216243    -0.20900
C4946       C  0.61032902  0.76447806  0.38407077    -0.07500
C4947       C  0.59310878  0.74467948  0.39001569     0.13400
C4948       C  0.59208788  0.72383278  0.37431608    -0.20900
C4949       C  0.60742737  0.72206912  0.35293570    -0.07500
C4950       C  0.62418817  0.74169856  0.34640539     0.13400
C4951       C  0.64162490  0.74020067  0.32390958    -0.24300
H4952       H  0.63911635  0.77765375  0.35801927     0.14700
H4953       H  0.57880711  0.70871676  0.37859799     0.14700
C4954       C  0.57645544  0.74428806  0.41336420    -0.24200
H4955       H  0.63738420  0.75599702  0.31059132     0.04900
H4956       H  0.63968736  0.72211371  0.31353098     0.08200
H4957       H  0.66163239  0.74179166  0.33039255     0.08200
H4958       H  0.56312053  0.76052961  0.41279861     0.08100
H4959       H  0.58821171  0.74491576  0.43080859     0.08100
H4960       H  0.56474382  0.72685990  0.41462125     0.04900
C4961       C  0.68830733  0.81671530  0.61530278    -0.20900
C4962       C  0.66968185  0.83008633  0.60159408    -0.07500
C4963       C  0.66120739  0.85392402  0.61031561     0.13400
C4964       C  0.67160042  0.86374002  0.63248060    -0.20900
C4965       C  0.69031635  0.85056006  0.64597955    -0.07500
C4966       C  0.69879107  0.82677626  0.63753239     0.13400
C4967       C  0.71970829  0.81277048  0.65117494    -0.24300
H4968       H  0.69512617  0.79873916  0.60821655     0.14700
H4969       H  0.66568823  0.88227686  0.63896520     0.14700
C4970       C  0.64251947  0.86998855  0.59558454    -0.24200
H4971       H  0.72450527  0.79472485  0.64161599     0.04900
H4972       H  0.71370721  0.80830877  0.67085282     0.08200
H4973       H  0.73707465  0.82463087  0.65172727     0.08200
H4974       H  0.62375910  0.86055737  0.59522969     0.08100
H4975       H  0.64946580  0.87308111  0.57593891     0.08100
H4976       H  0.63977476  0.88885953  0.60432203     0.04900
C4977       C  0.99275994  0.74764932  0.62292578    -0.20900
C4978       C  0.96776817  0.74491364  0.63184582    -0.07500
C4979       C  0.96246599  0.75272560  0.65696396     0.13400
C4980       C  0.97909781  0.76959109  0.66884739    -0.20900
C4981       C  0.00132709  0.77735083  0.65666974    -0.07500
C4982       C  0.00946535  0.76449078  0.63479774     0.13400
C4983       C  0.03445434  0.77061050  0.62248255    -0.24300
H4984       H  0.99787420  0.74014267  0.60455883     0.14700
H4985       H  0.97364192  0.77831828  0.68657411     0.14700
C4986       C  0.93875263  0.74512424  0.67087453    -0.24200
H4987       H  0.03769670  0.75910175  0.60523694     0.04900
H4988       H  0.05015155  0.76666769  0.63601969     0.08200
H4989       H  0.03487211  0.79088771  0.61688387     0.08200
H4990       H  0.92727039  0.73134866  0.66006536     0.08100
H4991       H  0.92699666  0.76208899  0.67483006     0.08100
H4992       H  0.94407225  0.73600869  0.68914288     0.04900
C4993       C  0.84302696  0.85149681  0.63213155    -0.20900
C4994       C  0.82815504  0.83447566  0.61810938    -0.07500
C4995       C  0.80139744  0.83716206  0.61812856     0.13400
C4996       C  0.79036899  0.85575829  0.63334530    -0.20900
C4997       C  0.80525647  0.87197438  0.64815549    -0.07500
C4998       C  0.83195020  0.87034410  0.64697570     0.13400
C4999       C  0.84884215  0.88877045  0.66067916    -0.24300
H5000       H  0.86354870  0.85029811  0.63120608     0.14700
H5001       H  0.76985467  0.85711401  0.63432355     0.14700
C5002       C  0.78417432  0.82034941  0.60280465    -0.24200
H5003       H  0.86915407  0.88596275  0.65581074     0.04900
H5004       H  0.84703092  0.88621238  0.68145250     0.08200
H5005       H  0.84354506  0.90844273  0.65531337     0.08200
H5006       H  0.78800677  0.80017526  0.60742480     0.08100
H5007       H  0.78716123  0.82387849  0.58229407     0.08100
H5008       H  0.76381063  0.82412876  0.60672763     0.04900
C5009       C  0.77832545  0.75611074  0.47722678    -0.20900
C5010       C  0.79398423  0.76167317  0.49851791    -0.07500
C5011       C  0.78106009  0.76105422  0.52242696     0.13400
C5012       C  0.75451753  0.75659303  0.52428507    -0.20900
C5013       C  0.73838916  0.75287341  0.50323309    -0.07500
C5014       C  0.75119226  0.75162423  0.47936051     0.13400
C5015       C  0.73608540  0.74651313  0.45590518    -0.24300
H5016       H  0.78697889  0.75644939  0.45863619     0.14700
H5017       H  0.74597472  0.75741836  0.54295001     0.14700
C5018       C  0.79445874  0.76563080  0.54722155    -0.24200
H5019       H  0.72687706  0.72769007  0.45750349     0.04900
H5020       H  0.74811936  0.74673984  0.43865548     0.08200
H5021       H  0.72131034  0.76120373  0.45386973     0.08200
H5022       H  0.78653131  0.78273880  0.55639099     0.08100
H5023       H  0.81504895  0.76807791  0.54495263     0.08100
H5024       H  0.79152728  0.74919573  0.56009873     0.04900
C5025       C  0.93436899  0.68408351  0.63031236    -0.20900
C5026       C  0.95834621  0.67460046  0.62458791    -0.07500
C5027       C  0.96474546  0.66857544  0.59943395     0.13400
C5028       C  0.94668507  0.67224570  0.58041340    -0.20900
C5029       C  0.92232395  0.68132411  0.58606676    -0.07500
C5030       C  0.91587834  0.68684052  0.61158870     0.13400
C5031       C  0.88960439  0.69460184  0.61987644    -0.24300
H5032       H  0.92933765  0.68703084  0.65000651     0.14700
H5033       H  0.95163491  0.66784678  0.56099008     0.14700
C5034       C  0.99019905  0.65771653  0.59227531    -0.24200
H5035       H  0.88849971  0.69763150  0.64066834     0.04900
H5036       H  0.87582466  0.67952896  0.61503354     0.08200
H5037       H  0.88385990  0.71252344  0.61072435     0.08200
H5038       H  0.98759012  0.63855922  0.58414178     0.08100
H5039       H  0.00333143  0.65617817  0.60867247     0.08100
H5040       H  0.99930067  0.67012119  0.57787422     0.04900
C5041       C  0.90143417  0.90076948  0.56632262    -0.20900
C5042       C  0.87957313  0.88553823  0.56465215    -0.07500
C5043       C  0.85548128  0.89689734  0.56767559     0.13400
C5044       C  0.85373134  0.92321901  0.56705504    -0.20900
C5045       C  0.87533197  0.93826183  0.56334701    -0.07500
C5046       C  0.89952874  0.92715803  0.56541123     0.13400
C5047       C  0.92342223  0.94268163  0.56472783    -0.24300
H5048       H  0.92014349  0.89225958  0.56564843     0.14700
H5049       H  0.83501343  0.93161254  0.56582689     0.14700
C5050       C  0.83116690  0.88220805  0.57043183    -0.24200
H5051       H  0.93475053  0.93886369  0.58212666     0.04900
H5052       H  0.91928653  0.96327728  0.56392587     0.08200
H5053       H  0.93485502  0.93752301  0.54787779     0.08200
H5054       H  0.83447493  0.86175718  0.57317412     0.08100
H5055       H  0.81901324  0.88524252  0.55344761     0.08100
H5056       H  0.82077213  0.88888067  0.58742666     0.04900
C5057       C  0.23901290  0.61096962  0.45963682    -0.20900
C5058       C  0.21658179  0.60352821  0.47231792    -0.07500
C5059       C  0.21317171  0.57764731  0.47846078     0.13400
C5060       C  0.23357964  0.56099303  0.47516747    -0.20900
C5061       C  0.25693606  0.56950896  0.46573615    -0.07500
C5062       C  0.25929408  0.59437144  0.45669456     0.13400
C5063       C  0.28371552  0.60440110  0.44586928    -0.24300
H5064       H  0.24180550  0.63040892  0.45358767     0.14700
H5065       H  0.23222642  0.54199175  0.48290687     0.14700
C5066       C  0.18886006  0.56742666  0.48948260    -0.24200
H5067       H  0.28016200  0.61251197  0.42674824     0.04900
H5068       H  0.29834289  0.58941911  0.44399797     0.08200
H5069       H  0.29129166  0.61946794  0.45833410     0.08200
H5070       H  0.17263794  0.57254659  0.47697265     0.08100
H5071       H  0.18583263  0.57503737  0.50878456     0.08100
H5072       H  0.18932163  0.54646528  0.49120023     0.04900
C5073       C  0.07886580  0.66839249  0.59746038    -0.20900
C5074       C  0.09337211  0.64807778  0.58843391    -0.07500
C5075       C  0.09933883  0.62778893  0.60491995     0.13400
C5076       C  0.08874241  0.62740162  0.62927320    -0.20900
C5077       C  0.07262194  0.64692286  0.63776733    -0.07500
C5078       C  0.06859848  0.66830712  0.62186768     0.13400
C5079       C  0.05295908  0.69086034  0.62972746    -0.24300
H5080       H  0.07539662  0.68456288  0.58519518     0.14700
H5081       H  0.09244668  0.61122963  0.64148391     0.14700
C5082       C  0.11597581  0.60607442  0.59678739    -0.24200
H5083       H  0.05238485  0.70579745  0.61481332     0.04900
H5084       H  0.06138338  0.69946744  0.64693141     0.08200
H5085       H  0.03307985  0.68501472  0.63334854     0.08200
H5086       H  0.13552183  0.61293088  0.59309471     0.08100
H5087       H  0.10810705  0.59732088  0.57938947     0.08100
H5088       H  0.11728355  0.59114814  0.61165495     0.04900
C5089       C  0.99981357  0.73897809  0.46707372    -0.20900
C5090       C  0.98917524  0.76019756  0.47914076    -0.07500
C5091       C  0.00708622  0.77886046  0.48739885     0.13400
C5092       C  0.03392336  0.77471417  0.48589131    -0.20900
C5093       C  0.04439747  0.75238551  0.47585882    -0.07500
C5094       C  0.02658144  0.73509720  0.46506916     0.13400
C5095       C  0.03532169  0.71138416  0.45216451    -0.24300
H5096       H  0.98714331  0.72414443  0.46077544     0.14700
H5097       H  0.04665564  0.78831631  0.49445605     0.14700
C5098       C  0.99851582  0.80329010  0.49891063    -0.24200
H5099       H  0.02748949  0.71085683  0.43261305     0.04900
H5100       H  0.02852760  0.69455486  0.46285882     0.08200
H5101       H  0.05625260  0.71049390  0.45068128     0.08200
H5102       H  0.97759702  0.80454537  0.49997604     0.08100
H5103       H  0.00538983  0.81936836  0.48714868     0.08100
H5104       H  0.00664862  0.80507349  0.51823653     0.04900
C5105       C  0.28311140  0.74008687  0.46365463    -0.20900
C5106       C  0.29230358  0.73765330  0.48872813    -0.07500
C5107       C  0.27380198  0.74049101  0.50815897     0.13400
C5108       C  0.24745466  0.74522774  0.50204582    -0.20900
C5109       C  0.23823771  0.74660833  0.47668863    -0.07500
C5110       C  0.25720141  0.74481130  0.45748962     0.13400
C5111       C  0.25065468  0.74690542  0.42971708    -0.24300
H5112       H  0.29641841  0.73742788  0.44824183     0.14700
H5113       H  0.23369822  0.74566870  0.51722522     0.14700
C5114       C  0.28154270  0.73683083  0.53534104    -0.24200
H5115       H  0.26259107  0.76176122  0.42076157     0.04900
H5116       H  0.23058334  0.75230738  0.42635620     0.08200
H5117       H  0.25445832  0.72855799  0.42027537     0.08200
H5118       H  0.29639181  0.75082114  0.54035284     0.08100
H5119       H  0.28922959  0.71742480  0.53812077     0.08100
H5120       H  0.26523967  0.73936738  0.54839315     0.04900
C5121       C  0.15921025  0.64057612  0.37563612    -0.20900
C5122       C  0.17499221  0.65831645  0.38770622    -0.07500
C5123       C  0.19791796  0.66590558  0.37579786     0.13400
C5124       C  0.20514781  0.65409093  0.35325267    -0.20900
C5125       C  0.19056747  0.63454908  0.34310897    -0.07500
C5126       C  0.16688232  0.62844915  0.35355788     0.13400
C5127       C  0.15008919  0.60864509  0.34175117    -0.24300
H5128       H  0.14138708  0.63500633  0.38421239     0.14700
H5129       H  0.22300345  0.65901478  0.34434276     0.14700
C5130       C  0.21511405  0.68594521  0.38663441    -0.24200
H5131       H  0.13197539  0.60638737  0.35224543     0.04900
H5132       H  0.15994741  0.59006478  0.34172842     0.08200
H5133       H  0.14550125  0.61421177  0.32192530     0.08200
H5134       H  0.20417236  0.70357730  0.39000880     0.08100
H5135       H  0.23092798  0.69063593  0.37353874     0.08100
H5136       H  0.22383337  0.67915952  0.40460345     0.04900
C5137       C  0.08795648  0.79465959  0.59986344    -0.20900
C5138       C  0.10065970  0.79743772  0.62293592    -0.07500
C5139       C  0.11811711  0.77895452  0.63123086     0.13400
C5140       C  0.12280277  0.75802269  0.61572003    -0.20900
C5141       C  0.10981919  0.75504070  0.59261969    -0.07500
C5142       C  0.09194826  0.77358776  0.58468541     0.13400
C5143       C  0.07757779  0.77210736  0.55990176    -0.24300
H5144       H  0.07430044  0.80892758  0.59393998     0.14700
H5145       H  0.13685038  0.74409431  0.62145285     0.14700
C5146       C  0.13240881  0.78180800  0.65579915    -0.24200
H5147       H  0.06517156  0.78886515  0.55676670     0.04900
H5148       H  0.06510881  0.75521516  0.55991746     0.08200
H5149       H  0.09102700  0.77124914  0.54378213     0.08200
H5150       H  0.14289855  0.80002280  0.65573881     0.08100
H5151       H  0.14634103  0.76625620  0.65869008     0.08100
H5152       H  0.11899760  0.78144476  0.67197421     0.04900
C5153       C  0.78021271  0.36910462  0.48602697    -0.20900
C5154       C  0.76256105  0.36053411  0.46787134    -0.07500
C5155       C  0.75645771  0.33455815  0.46727274     0.13400
C5156       C  0.76528484  0.31884774  0.48704561    -0.20900
C5157       C  0.77862352  0.32904397  0.50773310    -0.07500
C5158       C  0.78751871  0.35396529  0.50653712     0.13400
C5159       C  0.80345643  0.36491474  0.52755730    -0.24300
H5160       H  0.78663646  0.38848529  0.48537283     0.14700
H5161       H  0.75884874  0.29938598  0.48805775     0.14700
C5162       C  0.73913684  0.32378725  0.44736793    -0.24200
H5163       H  0.80897296  0.38480638  0.52345881     0.04900
H5164       H  0.82105976  0.35354379  0.52988049     0.08200
H5165       H  0.79275709  0.36468737  0.54565922     0.08200
H5166       H  0.74750372  0.32684402  0.42830409     0.08100
H5167       H  0.72028171  0.33313834  0.44829459     0.08100
H5168       H  0.73628285  0.30311522  0.45006675     0.04900
C5169       C  0.61705681  0.38676414  0.32218239    -0.20900
C5170       C  0.60800973  0.40706347  0.30715486    -0.07500
C5171       C  0.61989927  0.43088975  0.30943692     0.13400
C5172       C  0.64141036  0.43317384  0.32491080    -0.20900
C5173       C  0.65092390  0.41288771  0.33953202    -0.07500
C5174       C  0.63802029  0.38946858  0.33864293     0.13400
C5175       C  0.64672424  0.36700590  0.35407882    -0.24300
H5176       H  0.60783903  0.36850461  0.32080826     0.14700
H5177       H  0.65101377  0.45117798  0.32544807     0.14700
C5178       C  0.61069609  0.45398379  0.29520301    -0.24200
H5179       H  0.63506191  0.34996649  0.35022014     0.04900
H5180       H  0.64505180  0.37121464  0.37458786     0.08200
H5181       H  0.66674044  0.36243716  0.34941894     0.08200
H5182       H  0.59088559  0.45847266  0.30069695     0.08100
H5183       H  0.61186193  0.45080327  0.27445892     0.08100
H5184       H  0.62215517  0.47086830  0.29985275     0.04900
C5185       C  0.85425337  0.39464248  0.42330758    -0.20900
C5186       C  0.84525535  0.41642598  0.43532361    -0.07500
C5187       C  0.86017539  0.42799232  0.45432347     0.13400
C5188       C  0.88315475  0.41659003  0.46175541    -0.20900
C5189       C  0.89125058  0.39377908  0.45090818    -0.07500
C5190       C  0.87693297  0.38302057  0.43097400     0.13400
C5191       C  0.88547066  0.35939234  0.41752078    -0.24300
H5192       H  0.84291505  0.38606705  0.40850005     0.14700
H5193       H  0.89428628  0.42492093  0.47685554     0.14700
C5194       C  0.85217700  0.45246290  0.46651220    -0.24200
H5195       H  0.87312503  0.35505715  0.40102532     0.04900
H5196       H  0.88465922  0.34284718  0.43053346     0.08200
H5197       H  0.90513530  0.36191417  0.41042184     0.08200
H5198       H  0.83443453  0.44971437  0.47742211     0.08100
H5199       H  0.84911451  0.46717966  0.45168609     0.08100
H5200       H  0.86682843  0.45951051  0.47987800     0.04900
C5201       C  0.59900953  0.53078182  0.36263095    -0.20900
C5202       C  0.59982511  0.55467544  0.37423354    -0.07500
C5203       C  0.61487284  0.55803212  0.39619321     0.13400
C5204       C  0.63104613  0.53834845  0.40388842    -0.20900
C5205       C  0.63239869  0.51578281  0.39007465    -0.07500
C5206       C  0.61521468  0.51134057  0.37023932     0.13400
C5207       C  0.61436632  0.48642868  0.35663691    -0.24300
H5208       H  0.58699028  0.52772324  0.34623469     0.14700
H5209       H  0.64381604  0.54117525  0.41977152     0.14700
C5210       C  0.61404479  0.58198347  0.41155199    -0.24200
H5211       H  0.59861576  0.48573354  0.34263287     0.04900
H5212       H  0.61163403  0.47074851  0.37047377     0.08200
H5213       H  0.63234361  0.48368383  0.34626618     0.08200
H5214       H  0.59414677  0.58618645  0.41702279     0.08100
H5215       H  0.62193163  0.59807999  0.40056728     0.08100
H5216       H  0.62545343  0.58018753  0.42921711     0.04900
C5217       C  0.59655424  0.50718270  0.22231223    -0.20900
C5218       C  0.62105256  0.49999033  0.23009957    -0.07500
C5219       C  0.62833401  0.50414429  0.25577496     0.13400
C5220       C  0.61251969  0.51864052  0.27134429    -0.20900
C5221       C  0.59066387  0.52993694  0.26149461    -0.07500
C5222       C  0.58185527  0.52318277  0.23730435     0.13400
C5223       C  0.55776526  0.53434145  0.22675649    -0.24300
H5224       H  0.59038168  0.50329205  0.20310694     0.14700
H5225       H  0.61894517  0.52398565  0.29010971     0.14700
C5226       C  0.65367573  0.49601047  0.26645044    -0.24200
H5227       H  0.55312513  0.52668624  0.20774463     0.04900
H5228       H  0.55942762  0.55522375  0.22504900     0.08200
H5229       H  0.54208107  0.52964362  0.23988802     0.08200
H5230       H  0.66934483  0.50623951  0.25683791     0.08100
H5231       H  0.65584275  0.47525152  0.26431524     0.08100
H5232       H  0.65538639  0.50031230  0.28696292     0.04900
C5233       C  0.62467209  0.60977784  0.05243615    -0.20900
C5234       C  0.61038869  0.62704706  0.06663399    -0.07500
C5235       C  0.60931259  0.62395806  0.09331189     0.13400
C5236       C  0.62223816  0.60356822  0.10483123    -0.20900
C5237       C  0.63653770  0.58620170  0.09056712    -0.07500
C5238       C  0.63738625  0.58929498  0.06385163     0.13400
C5239       C  0.65046526  0.57050521  0.04689227    -0.24300
H5240       H  0.62488316  0.61159310  0.03195155     0.14700
H5241       H  0.62175514  0.60174380  0.12530925     0.14700
C5242       C  0.59552109  0.64216210  0.11034575    -0.24200
H5243       H  0.64677382  0.57450383  0.02651218     0.04900
H5244       H  0.64349475  0.55110450  0.05106896     0.08200
H5245       H  0.67124949  0.57141268  0.04966530     0.08200
H5246       H  0.57961916  0.63224457  0.11994742     0.08100
H5247       H  0.58793392  0.65889265  0.10007885     0.08100
H5248       H  0.60884684  0.64934216  0.12496300     0.04900
C5249       C  0.75224462  0.53796798  0.27450380    -0.20900
C5250       C  0.76401399  0.51819057  0.26067390    -0.07500
C5251       C  0.77640240  0.49946253  0.27577391     0.13400
C5252       C  0.77554783  0.50018632  0.30296978    -0.20900
C5253       C  0.76189782  0.51871904  0.31677933    -0.07500
C5254       C  0.75081501  0.53830471  0.30173036     0.13400
C5255       C  0.73608103  0.55903406  0.31444391    -0.24300
H5256       H  0.74233141  0.55247360  0.26387711     0.14700
H5257       H  0.78385313  0.48465140  0.31351270     0.14700
C5258       C  0.78932586  0.47754277  0.26310361    -0.24200
H5259       H  0.72850680  0.57297546  0.30049421     0.04900
H5260       H  0.74865565  0.56920713  0.32786556     0.08200
H5261       H  0.71982870  0.55086360  0.32503069     0.08200
H5262       H  0.80445659  0.48471850  0.25034638     0.08100
H5263       H  0.77532663  0.46668131  0.25180971     0.08100
H5264       H  0.79815614  0.46442763  0.27712313     0.04900
C5265       C  0.70471203  0.65734828  0.15771785    -0.20900
C5266       C  0.69904685  0.64031111  0.13808948    -0.07500
C5267       C  0.69095893  0.65022193  0.11436508     0.13400
C5268       C  0.69296215  0.67623451  0.10977011    -0.20900
C5269       C  0.70329278  0.69248201  0.12801840    -0.07500
C5270       C  0.70635796  0.68341560  0.15304578     0.13400
C5271       C  0.71237983  0.70073072  0.17478767    -0.24300
H5272       H  0.70924542  0.65028283  0.17653290     0.14700
H5273       H  0.68920229  0.68319622  0.09073561     0.14700
C5274       C  0.68070844  0.63432344  0.09314031    -0.24200
H5275       H  0.69805129  0.69807469  0.18997974     0.04900
H5276       H  0.71184886  0.72095884  0.16899320     0.08200
H5277       H  0.73146939  0.69619294  0.18252694     0.08200
H5278       H  0.67800571  0.61438391  0.09861979     0.08100
H5279       H  0.69377895  0.63517394  0.07670047     0.08100
H5280       H  0.66191723  0.64183104  0.08717158     0.04900
C5281       C  0.63445831  0.43052778  0.21235633    -0.20900
C5282       C  0.61597191  0.44012108  0.19555309    -0.07500
C5283       C  0.62236245  0.44440598  0.16992264     0.13400
C5284       C  0.64721491  0.43988759  0.16208528    -0.20900
C5285       C  0.66622924  0.43230636  0.17929825    -0.07500
C5286       C  0.65933488  0.42588049  0.20433974     0.13400
C5287       C  0.67710521  0.41256692  0.22242866    -0.24300
H5288       H  0.62931845  0.42577724  0.23169815     0.14700
H5289       H  0.65212950  0.44417946  0.14265390     0.14700
C5290       C  0.60361480  0.45496496  0.15092911    -0.24200
H5291       H  0.67931732  0.42370349  0.23999412     0.04900
H5292       H  0.69605432  0.40901594  0.21409437     0.08200
H5293       H  0.66890288  0.39391147  0.22768440     0.08200
H5294       H  0.59675917  0.47375119  0.15728410     0.08100
H5295       H  0.58736501  0.44212555  0.14859880     0.08100
H5296       H  0.61202123  0.45703818  0.13180487     0.04900
C5297       C  0.88728147  0.39962861  0.60902725    -0.20900
C5298       C  0.87247074  0.41692182  0.59490176    -0.07500
C5299       C  0.87175022  0.41461168  0.56813059     0.13400
C5300       C  0.88630352  0.39572932  0.55642200    -0.20900
C5301       C  0.90205042  0.37937566  0.57049662    -0.07500
C5302       C  0.90218511  0.38104892  0.59720257     0.13400
C5303       C  0.91768489  0.36312958  0.61334508    -0.24300
H5304       H  0.88744307  0.40082395  0.62952957     0.14700
H5305       H  0.88637150  0.39456881  0.53590352     0.14700
C5306       C  0.85687571  0.43265482  0.55149815    -0.24200
H5307       H  0.91409175  0.36596684  0.63386779     0.04900
H5308       H  0.93822786  0.36623814  0.61006883     0.08200
H5309       H  0.91271944  0.34327830  0.60868327     0.08200
H5310       H  0.86275213  0.45243393  0.55536804     0.08100
H5311       H  0.83625578  0.43044528  0.55504246     0.08100
H5312       H  0.86006619  0.42903230  0.53102364     0.04900
C5313       C  0.92499157  0.50119627  0.72229530    -0.20900
C5314       C  0.90134497  0.51042233  0.73051558    -0.07500
C5315       C  0.89732091  0.51302650  0.75703569     0.13400
C5316       C  0.91467667  0.50178787  0.77399871    -0.20900
C5317       C  0.93539617  0.48789155  0.76505689    -0.07500
C5318       C  0.94182628  0.48951846  0.73918444     0.13400
C5319       C  0.96489161  0.47653969  0.72851127    -0.24300
H5320       H  0.92922388  0.50039250  0.70223009     0.14700
H5321       H  0.91008481  0.50079017  0.79399837     0.14700
C5322       C  0.87405571  0.52549726  0.76787943    -0.24200
H5323       H  0.97664698  0.49038752  0.71787864     0.04900
H5324       H  0.95890505  0.46132241  0.71538511     0.08200
H5325       H  0.97691551  0.46810156  0.74357797     0.08200
H5326       H  0.87505767  0.52675819  0.78887327     0.08100
H5327       H  0.85681350  0.51443020  0.76319017     0.08100
H5328       H  0.87246790  0.54508998  0.76033792     0.04900
C5329       C  0.75609516  0.52245521  0.55339911    -0.20900
C5330       C  0.74335444  0.50294330  0.56707456    -0.07500
C5331       C  0.72921350  0.48578782  0.55212145     0.13400
C5332       C  0.73002731  0.48699453  0.52522011    -0.20900
C5333       C  0.74523399  0.50444317  0.51143009    -0.07500
C5334       C  0.75760072  0.52312333  0.52613543     0.13400
C5335       C  0.77369585  0.54274305  0.51322662    -0.24300
H5336       H  0.76644238  0.53638389  0.56410273     0.14700
H5337       H  0.72022330  0.47235286  0.51484480     0.14700
C5338       C  0.71417217  0.46465892  0.56408408    -0.24200
H5339       H  0.78262661  0.55570257  0.52711572     0.04900
H5340       H  0.76175055  0.55417625  0.50008467     0.08200
H5341       H  0.78900672  0.53338413  0.50228930     0.08200
H5342       H  0.71433118  0.46543630  0.58509102     0.08100
H5343       H  0.72209484  0.44613396  0.55815709     0.08100
H5344       H  0.69409868  0.46595632  0.55773626     0.04900
C5345       C  0.81727409  0.36493128  0.62490380    -0.20900
C5346       C  0.80584258  0.37270080  0.64753377    -0.07500
C5347       C  0.79765067  0.35424722  0.66524788     0.13400
C5348       C  0.79813546  0.32878591  0.65832123    -0.20900
C5349       C  0.80482822  0.32155595  0.63366717    -0.07500
C5350       C  0.81693322  0.33952055  0.61760587     0.13400
C5351       C  0.82792421  0.33283887  0.59210051    -0.24300
H5352       H  0.82516863  0.37904058  0.61215329     0.14700
H5353       H  0.79004818  0.31482693  0.67109784     0.14700
C5354       C  0.78617933  0.36109580  0.69046364    -0.24200
H5355       H  0.83819834  0.34907274  0.58342314     0.04900
H5356       H  0.81263342  0.32748777  0.57869414     0.08200
H5357       H  0.84170253  0.31705551  0.59431241     0.08200
H5358       H  0.76961028  0.37377516  0.68744364     0.08100
H5359       H  0.80054366  0.37052275  0.70254814     0.08100
H5360       H  0.77942119  0.34415158  0.70101536     0.04900
C5361       C  0.87813544  0.56505237  0.66172751    -0.20900
C5362       C  0.85948806  0.57611228  0.67720987    -0.07500
C5363       C  0.86608092  0.58418192  0.70172360     0.13400
C5364       C  0.88997361  0.57786505  0.71128632    -0.20900
C5365       C  0.90827072  0.56577667  0.69613522    -0.07500
C5366       C  0.90228625  0.55928213  0.67102893     0.13400
C5367       C  0.92005192  0.54386746  0.65485341    -0.24300
H5368       H  0.87324885  0.55892743  0.64284385     0.14700
H5369       H  0.89445474  0.58315579  0.73059325     0.14700
C5370       C  0.84922868  0.60093432  0.71748116    -0.24200
H5371       H  0.91281969  0.54203121  0.63521307     0.04900
H5372       H  0.92236497  0.52472172  0.66327461     0.08200
H5373       H  0.93893731  0.55255562  0.65324525     0.08200
H5374       H  0.85900179  0.61926186  0.72064511     0.08100
H5375       H  0.84568152  0.59216247  0.73625872     0.08100
H5376       H  0.83081843  0.60516237  0.70816989     0.04900
C5377       C  0.88948146  0.59009744  0.84595000    -0.20900
C5378       C  0.86618315  0.60269596  0.84287282    -0.07500
C5379       C  0.86181161  0.61756873  0.82111345     0.13400
C5380       C  0.88068110  0.61901280  0.80250383    -0.20900
C5381       C  0.90379193  0.60573580  0.80505520    -0.07500
C5382       C  0.90848833  0.59158551  0.82741984     0.13400
C5383       C  0.93346601  0.57838557  0.83212384    -0.24300
H5384       H  0.89240046  0.57823938  0.86256601     0.14700
H5385       H  0.87710320  0.63015671  0.78553577     0.14700
C5386       C  0.83683394  0.63093940  0.81704226    -0.24200
H5387       H  0.93415355  0.56934711  0.85118301     0.04900
H5388       H  0.94924268  0.59225754  0.83097292     0.08200
H5389       H  0.93635737  0.56329254  0.81789598     0.08200
H5390       H  0.83351513  0.64447546  0.83270163     0.08100
H5391       H  0.82115273  0.61693062  0.81663868     0.08100
H5392       H  0.83649535  0.64167959  0.79887575     0.04900
C5393       C  0.72782278  0.64634813  0.97630515    -0.20900
C5394       C  0.74759232  0.65374764  0.95991191    -0.07500
C5395       C  0.75511795  0.67932032  0.95931773     0.13400
C5396       C  0.74642221  0.69535466  0.97855789    -0.20900
C5397       C  0.73113608  0.68593747  0.99827767    -0.07500
C5398       C  0.71980129  0.66212477  0.99588177     0.13400
C5399       C  0.70060972  0.65293948  0.01491004    -0.24300
H5400       H  0.72047765  0.62725920  0.97539182     0.14700
H5401       H  0.75438909  0.71417800  0.98013904     0.14700
C5402       C  0.77391909  0.68912489  0.94021498    -0.24200
H5403       H  0.69344286  0.63378349  0.01016160     0.04900
H5404       H  0.68423858  0.66617987  0.01521549     0.08200
H5405       H  0.70925638  0.65206772  0.03408767     0.08200
H5406       H  0.76630954  0.68639995  0.92077832     0.08100
H5407       H  0.79221752  0.67887037  0.94225273     0.08100
H5408       H  0.77767264  0.70963699  0.94276861     0.04900
C5409       C  0.78266489  0.50739472  0.02388316    -0.20900
C5410       C  0.75878523  0.50709015  0.01122527    -0.07500
C5411       C  0.73710306  0.50871006  0.02702035     0.13400
C5412       C  0.73956830  0.51296122  0.05348790    -0.20900
C5413       C  0.76324514  0.51467933  0.06606055    -0.07500
C5414       C  0.78506437  0.51056958  0.05087045     0.13400
C5415       C  0.81090501  0.51071655  0.06292659    -0.24300
H5416       H  0.79968433  0.50689528  0.01244957     0.14700
H5417       H  0.72250151  0.51603559  0.06448668     0.14700
C5418       C  0.71091228  0.50728977  0.01559167    -0.24200
H5419       H  0.82609905  0.50748223  0.04874692     0.04900
H5420       H  0.81204747  0.49545488  0.07747028     0.08200
H5421       H  0.81433067  0.52923354  0.07211609     0.08200
H5422       H  0.70877454  0.48911565  0.00535168     0.08100
H5423       H  0.70783277  0.52322513  0.00212811     0.08100
H5424       H  0.69589399  0.50824065  0.03029825     0.04900
C5425       C  0.76013597  0.47932228  0.77395392    -0.20900
C5426       C  0.75393221  0.50232823  0.76131882    -0.07500
C5427       C  0.74828658  0.52308782  0.77741674     0.13400
C5428       C  0.74949292  0.52057276  0.80436338    -0.20900
C5429       C  0.75744785  0.49825078  0.81698098    -0.07500
C5430       C  0.76264024  0.47724738  0.80100309     0.13400
C5431       C  0.77229255  0.45265792  0.81184487    -0.24300
H5432       H  0.76510593  0.46314810  0.76253442     0.14700
H5433       H  0.74657965  0.53721135  0.81568181     0.14700
C5434       C  0.74259503  0.54896968  0.76670931    -0.24200
H5435       H  0.75929165  0.43709831  0.80637748     0.04900
H5436       H  0.77348868  0.45296767  0.83283734     0.08200
H5437       H  0.79149431  0.44863729  0.80420328     0.08200
H5438       H  0.72377572  0.55539946  0.77358193     0.08100
H5439       H  0.74210572  0.54926466  0.74569482     0.08100
H5440       H  0.75729712  0.56254801  0.77314803     0.04900
C5441       C  0.65417464  0.58197848  0.94564566    -0.20900
C5442       C  0.66973013  0.59654805  0.92978392    -0.07500
C5443       C  0.66132825  0.62028664  0.92074531     0.13400
C5444       C  0.63776740  0.62935727  0.92862232    -0.20900
C5445       C  0.62256059  0.61536561  0.94542147    -0.07500
C5446       C  0.63051822  0.59104823  0.95356358     0.13400
C5447       C  0.61502024  0.57520758  0.97165116    -0.24300
H5448       H  0.66091635  0.56373097  0.95238640     0.14700
H5449       H  0.63156515  0.64795494  0.92234804     0.14700
C5450       C  0.67773220  0.63676758  0.90406859    -0.24200
H5451       H  0.62477198  0.55720279  0.97667996     0.04900
H5452       H  0.59655531  0.57031334  0.96279296     0.08200
H5453       H  0.61170949  0.58578388  0.98946254     0.08200
H5454       H  0.68112697  0.62726500  0.88569238     0.08100
H5455       H  0.69615746  0.64045083  0.91362580     0.08100
H5456       H  0.66862499  0.65532034  0.89994915     0.04900
C5457       C  0.90183389  0.50611954  0.87816980    -0.20900
C5458       C  0.88459909  0.49751475  0.89628398    -0.07500
C5459       C  0.88874525  0.47433975  0.90903103     0.13400
C5460       C  0.90956952  0.45958208  0.90222391    -0.20900
C5461       C  0.92528123  0.46669171  0.88192600    -0.07500
C5462       C  0.92209736  0.49094895  0.87054929     0.13400
C5463       C  0.93850932  0.50052527  0.84921806    -0.24300
H5464       H  0.89855536  0.52426299  0.86896913     0.14700
H5465       H  0.91218125  0.44127642  0.91127919     0.14700
C5466       C  0.87024714  0.46409477  0.92826015    -0.24200
H5467       H  0.93325153  0.52004834  0.84331023     0.04900
H5468       H  0.93625379  0.48832825  0.83235299     0.08200
H5469       H  0.95862810  0.50079189  0.85545728     0.08200
H5470       H  0.85096229  0.46299946  0.91978953     0.08100
H5471       H  0.86991565  0.47659102  0.94500741     0.08100
H5472       H  0.87560350  0.44481722  0.93492206     0.04900
loop_ 
_geom_bond_atom_site_label_1 
_geom_bond_atom_site_label_2 
_geom_bond_distance 
_geom_bond_site_symmetry_2 
_ccdc_geom_bond_type 
Zr1           O2   2.448       .  S
Zr1           O3   2.416       .  S
Zr1           O4   2.403       .  S
Zr1           O7   2.400       .  S
Zr1           O9   2.373       .  S
Zr1          O10   2.398       .  S
Zr1          O11   2.412       .  S
Zr1          O12   2.358       .  S
O2           H58   0.991   1_556  S
O2           H66   0.989       .  S
O3           C23   1.279       .  A
O4           C25   1.273       .  A
O5          Zr15   2.629       .  S
O5           C24   1.325       .  A
O6          Zr14   2.456       .  S
O6           C25   1.283       .  A
O7           C24   1.277       .  A
O8          Zr16   2.407       .  S
O8           C23   1.277       .  A
O9          Zr14   2.396       .  S
O9          Zr16   2.349       .  S
O10         Zr15   2.413       .  S
O10         Zr16   2.411       .  S
O10          H45   0.965       .  S
O11         Zr14   2.409       .  S
O11         Zr31   2.405       .  S
O11          H48   0.966       .  S
O12         Zr15   2.357       .  S
O12         Zr31   2.352       .  S
Zr13         O38   2.444       .  S
Zr13         O32   2.434       .  S
Zr13         O40   2.423       .  S
Zr13         O28   2.394       .  S
Zr13         O19   2.371       .  S
Zr13         O20   2.419       .  S
Zr13         O21   2.368       .  S
Zr13         O22   2.389       .  S
Zr14         O33   2.439       .  S
Zr14         O26   2.436       .  S
Zr14         O27   2.445       .  S
Zr14         O20   2.411       .  S
Zr14         O21   2.400       .  S
Zr15         O17   2.434       .  S
Zr15         O39   2.435       .  S
Zr15         O41   2.629       .  S
Zr15         O19   2.366       .  S
Zr15         O22   2.404       .  S
Zr16         O42   2.434       .  S
Zr16         O43   2.433       .  S
Zr16         O18   2.439       .  S
Zr16         O19   2.361       .  S
Zr16         O20   2.422       .  S
O17          H54   0.990       .  S
O18          H49   0.990       .  S
O18          H63   0.990       .  S
O20          H46   0.966       .  S
O21         Zr31   2.364       .  S
O22         Zr31   2.418       .  S
O22          H47   0.965       .  S
C23        C5442   1.460       .  S
C24        C5410   1.532   1_556  S
C25        C5394   1.477       .  S
O26          H62   0.990       .  S
O27          C29   1.286       .  A
O28          C29   1.274       .  A
C29        C5378   1.464       .  S
O30         Zr31   2.438       .  S
O30          H59   0.990       .  S
Zr31         O34   2.439       .  S
Zr31         O35   2.437       .  S
Zr31         O36   2.385       .  S
O32          C37   1.284       .  A
O33          H50   0.990       .  S
O33          H65   0.990       .  S
O34          H51   0.990       .  S
O35          H55   0.990       .  S
O35          H64   0.990       .  S
O36          C37   1.273       .  A
C37        C5458   1.456       .  S
O38          H57   0.991       .  S
O38          H61   0.991       .  S
O39          H53   0.990       .  S
O39          H60   0.990       .  S
O40          C44   1.278       .  A
O41          C44   1.324       .  A
O42          H52   0.990       .  S
O43          H56   0.990       .  S
C44        C5429   1.542       .  S
Zr67         O68   2.441       .  S
Zr67         O69   2.434       .  S
Zr67         O70   2.422       .  S
Zr67         O73   2.431       .  S
Zr67         O75   2.365       .  S
Zr67         O76   2.401       .  S
Zr67         O77   2.422       .  S
Zr67         O78   2.365       .  S
O68         H124   0.990       .  S
O68         H132   0.991       .  S
O69          C89   1.284       .  A
O70          C91   1.280       .  A
O71         Zr81   2.633       .  S
O71          C90   1.327       .  A
O72         Zr80   2.445       .  S
O72          C91   1.285       .  A
O73          C90   1.284       .  A
O74         Zr82   2.384       .  S
O74          C89   1.272       .  A
O75         Zr80   2.372       .  S
O75         Zr82   2.359       .  S
O76         Zr81   2.425       .  S
O76         Zr82   2.416       .  S
O76         H111   0.967       .  S
O77         Zr80   2.394       .  S
O77         Zr97   2.436       .  S
O77         H114   0.963       .  S
O78         Zr81   2.342       .  S
O78         Zr97   2.360       .  S
Zr79        O104   2.437       .  S
Zr79         O98   2.425       .  S
Zr79        O106   2.436       .  S
Zr79         O94   2.441       .  S
Zr79         O85   2.368       .  S
Zr79         O86   2.416       .  S
Zr79         O87   2.392       .  S
Zr79         O88   2.417       .  S
Zr80         O99   2.430       .  S
Zr80         O92   2.436       .  S
Zr80         O93   2.423       .  S
Zr80         O86   2.404       .  S
Zr80         O87   2.386       .  S
Zr81         O83   2.438       .  S
Zr81        O105   2.436       .  S
Zr81        O107   2.629       .  S
Zr81         O85   2.356       .  S
Zr81         O88   2.418       .  S
Zr82        O108   2.435       .  S
Zr82        O109   2.433       .  S
Zr82         O84   2.439       .  S
Zr82         O85   2.354       .  S
Zr82         O86   2.389       .  S
O83         H120   0.990       .  S
O84         H115   0.990       .  S
O84         H129   0.990       .  S
O86         H112   0.964       .  S
O87         Zr97   2.391       .  S
O88         Zr97   2.428       .  S
O88         H113   0.966       .  S
C89        C5346   1.472       .  S
C90        C5330   1.538       .  S
C91        C5298   1.492       .  S
O92         H128   0.990       .  S
O93          C95   1.285       .  A
O94          C95   1.284       .  A
C95        C5314   1.492       .  S
O96         Zr97   2.431       .  S
O96         H125   0.990       .  S
Zr97        O100   2.436       .  S
Zr97        O101   2.437       .  S
Zr97        O102   2.417       .  S
O98         C103   1.272       .  A
O99         H116   0.990       .  S
O99         H131   0.989       .  S
O100        H117   0.991       .  S
O101        H121   0.991       .  S
O101        H130   0.989       .  S
O102        C103   1.269       .  A
C103       C5362   1.471       .  S
O104        H123   0.986       .  S
O104        H127   0.990       .  S
O105        H119   0.990       .  S
O105        H126   0.990       .  S
O106        C110   1.284       .  A
O107        C110   1.326       .  A
O108        H118   0.990       .  S
O109        H122   0.990       .  S
C110       C5426   1.541       .  S
Zr133       O134   2.439       .  S
Zr133       O135   2.432       .  S
Zr133       O136   2.422       .  S
Zr133       O139   2.432       .  S
Zr133       O141   2.385       .  S
Zr133       O142   2.399       .  S
Zr133       O143   2.417       .  S
Zr133       O144   2.379       .  S
O134        H190   0.990       .  S
O134        H198   0.986       .  S
O135        C155   1.274       .  A
O136        C157   1.280       .  A
O137       Zr147   2.639       .  S
O137        C156   1.327       .  A
O138       Zr146   2.430       .  S
O138        C157   1.287       .  A
O139        C156   1.282       .  A
O140       Zr148   2.424       .  S
O140        C155   1.272       .  A
O141       Zr146   2.375       .  S
O141       Zr148   2.385       .  S
O142       Zr147   2.409       .  S
O142       Zr148   2.427       .  S
O142        H177   0.967       .  S
O143       Zr146   2.419       .  S
O143       Zr163   2.387       .  S
O143        H180   0.962       .  S
O144       Zr147   2.365       .  S
O144       Zr163   2.373       .  S
Zr145       O170   2.443       .  S
Zr145       O164   2.449       .  S
Zr145       O172   2.422       .  S
Zr145       O160   2.432       .  S
Zr145       O151   2.379       .  S
Zr145       O152   2.430       .  S
Zr145       O153   2.364       .  S
Zr145       O154   2.399       .  S
Zr146       O165   2.441       .  S
Zr146       O158   2.431       .  S
Zr146       O159   2.444       .  S
Zr146       O152   2.407       .  S
Zr146       O153   2.393       .  S
Zr147       O149   2.435       .  S
Zr147       O171   2.435       .  S
Zr147       O173   2.632       .  S
Zr147       O151   2.350       .  S
Zr147       O154   2.435       .  S
Zr148       O174   2.441       .  S
Zr148       O175   2.442       .  S
Zr148       O150   2.443       .  S
Zr148       O151   2.358       .  S
Zr148       O152   2.449       .  S
O149        H186   0.990       .  S
O150        H181   0.990       .  S
O150        H195   0.990       .  S
O152        H178   0.966       .  S
O153       Zr163   2.368       .  S
O154       Zr163   2.401       .  S
O154        H179   0.966       .  S
C155       C5285   1.479       .  S
C156       C5250   1.553       .  S
C157       C5218   1.481       .  S
O158        H194   0.990       .  S
O159        C161   1.284       .  A
O160        C161   1.280       .  A
C161       C5237   1.494       .  S
O162       Zr163   2.435       .  S
O162        H191   0.990       .  S
Zr163       O166   2.430       .  S
Zr163       O167   2.441       .  S
Zr163       O168   2.398       .  S
O164        C169   1.284       .  A
O165        H182   0.990       .  S
O165        H197   0.990       .  S
O166        H183   0.990       .  S
O167        H187   0.991       .  S
O167        H196   0.990       .  S
O168        C169   1.275       .  A
C169       C5266   1.484       .  S
O170        H189   0.988       .  S
O170        H193   0.991       .  S
O171        H185   0.990       .  S
O171        H192   0.990       .  S
O172        C176   1.275       .  A
O173        C176   1.322       .  A
O174        H184   0.990       .  S
O175        H188   0.989       .  S
C176       C5413   1.541       .  S
Zr199       O200   2.448       .  S
Zr199       O201   2.439       .  S
Zr199       O202   2.414       .  S
Zr199       O205   2.422       .  S
Zr199       O207   2.373       .  S
Zr199       O208   2.396       .  S
Zr199       O209   2.422       .  S
Zr199       O210   2.378       .  S
O200        H256   0.991       .  S
O200        H264   0.991       .  S
O201        C221   1.284       .  A
O202        C223   1.278       .  A
O203       Zr213   2.651       .  S
O203        C222   1.330       .  A
O204       Zr212   2.464       .  S
O204        C223   1.288       .  A
O205        C222   1.278       .  A
O206       Zr214   2.383       .  S
O206        C221   1.273       .  A
O207       Zr212   2.401       .  S
O207       Zr214   2.366       .  S
O208       Zr213   2.408       .  S
O208       Zr214   2.416       .  S
O208        H243   0.965       .  S
O209       Zr212   2.399       .  S
O209       Zr229   2.423       .  S
O209        H246   0.966       .  S
O210       Zr213   2.366       .  S
O210       Zr229   2.371       .  S
Zr211       O236   2.449       .  S
Zr211       O230   2.426       .  S
Zr211       O238   2.401       .  S
Zr211       O226   2.396       .  S
Zr211       O217   2.352       .  S
Zr211       O218   2.423       .  S
Zr211       O219   2.373       .  S
Zr211       O220   2.392       .  S
Zr212       O231   2.436       .  S
Zr212       O224   2.435       .  S
Zr212       O225   2.465       .  S
Zr212       O218   2.408       .  S
Zr212       O219   2.405       .  S
Zr213       O215   2.435       .  S
Zr213       O237   2.436       .  S
Zr213       O239   2.645       .  S
Zr213       O217   2.357       .  S
Zr213       O220   2.416       .  S
Zr214       O240   2.434       .  S
Zr214       O241   2.435       .  S
Zr214       O216   2.439       .  S
Zr214       O217   2.352       .  S
Zr214       O218   2.402       .  S
O215        H252   0.990       .  S
O216        H247   0.990       .  S
O216        H261   0.990       .  S
O218        H244   0.965       .  S
O219       Zr229   2.361       .  S
O220       Zr229   2.405       .  S
O220        H245   0.966       .  S
C221       C5205   1.459       .  S
C222       C5253   1.549       .  S
C223       C5173   1.496       .  S
O224        H260   0.990       .  S
O225        C227   1.287       .  A
O226        C227   1.272       .  A
C227       C5154   1.482       .  S
O228       Zr229   2.436       .  S
O228        H257   0.990       .  S
Zr229       O232   2.433       .  S
Zr229       O233   2.438       .  S
Zr229       O234   2.419       .  S
O230        C235   1.279       .  A
O231        H248   0.989       .  S
O231        H263   0.990       .  S
O232        H249   0.990       .  S
O233        H253   0.989       .  S
O233        H262   0.990       .  S
O234        C235   1.280       .  A
C235       C5186   1.475       .  S
O236        H255   0.990       .  S
O236        H259   0.989       .  S
O237        H251   0.990       .  S
O237        H258   0.991       .  S
O238        C242   1.278       .  A
O239        C242   1.328       .  A
O240        H250   0.990       .  S
O241        H254   0.989       .  S
C242       C5333   1.545       .  S
Zr265       O266   2.443       .  S
Zr265       O267   2.414       .  S
Zr265       O268   2.361       .  S
Zr265       O271   2.387       .  S
Zr265       O273   2.358       .  S
Zr265       O274   2.389       .  S
Zr265       O275   2.406       .  S
Zr265       O276   2.381       .  S
O266        H322   0.990       .  S
O266        H330   0.989       .  S
O267        C287   1.279       .  A
O268        C289   1.273       .  A
O269       Zr279   2.638       .  S
O269        C288   1.321       .  A
O270       Zr278   2.455       .  S
O270        C289   1.288       .  A
O271        C288   1.268       .  A
O272       Zr280   2.405       .  S
O272        C287   1.280       .  A
O273       Zr278   2.377       .  S
O273       Zr280   2.352       .  S
O274       Zr279   2.405       .  S
O274       Zr280   2.405       .  S
O274        H309   0.965       .  S
O275       Zr278   2.396       .  S
O275       Zr295   2.419       .  S
O275        H312   0.966       .  S
O276       Zr279   2.372       .  S
O276       Zr295   2.363       .  S
Zr277       O302   2.447       .  S
Zr277       O296   2.421       .  S
Zr277       O304   2.424       .  S
Zr277       O292   2.425       .  S
Zr277       O283   2.386       .  S
Zr277       O284   2.411       .  S
Zr277       O285   2.373       .  S
Zr277       O286   2.404       .  S
Zr278       O297   2.437       .  S
Zr278       O290   2.437       .  S
Zr278       O291   2.430       .  S
Zr278       O284   2.408       .  S
Zr278       O285   2.393       .  S
Zr279       O281   2.434       .  S
Zr279       O303   2.438       .  S
Zr279       O305   2.607       .  S
Zr279       O283   2.406       .  S
Zr279       O286   2.389       .  S
Zr280       O306   2.436       .  S
Zr280       O307   2.433       .  S
Zr280       O282   2.444       .  S
Zr280       O283   2.379       .  S
Zr280       O284   2.402       .  S
O281        H318   0.990       .  S
O282        H313   0.990       .  S
O282        H327   0.990       .  S
O284        H310   0.966       .  S
O285       Zr295   2.340       .  S
O286       Zr295   2.407       .  S
O286        H311   0.964       .  S
C287       C5122   1.476       .  S
C288       C5109   1.551       .  S
C289       C5058   1.483       .  S
O290        H326   0.990       .  S
O291        C293   1.280       .  A
O292        C293   1.278       .  A
C293       C5074   1.475       .  S
O294       Zr295   2.435       .  S
O294        H323   0.989       .  S
Zr295       O298   2.434       .  S
Zr295       O299   2.438       .  S
Zr295       O300   2.415       .  S
O296        C301   1.281       .  A
O297        H314   0.990       .  S
O297        H329   0.990       .  S
O298        H315   0.990       .  S
O299        H319   0.990       .  S
O299        H328   0.989       .  S
O300        C301   1.280       .  A
C301       C5141   1.468       .  S
O302        H321   0.990       .  S
O302        H325   0.991       .  S
O303        H317   0.989       .  S
O303        H324   0.991       .  S
O304        C308   1.280       .  A
O305        C308   1.320       .  A
O306        H316   0.990       .  S
O307        H320   0.990       .  S
C308       C5093   1.541       .  S
Zr331       O332   2.444       .  S
Zr331       O333   2.418       .  S
Zr331       O334   2.446       .  S
Zr331       O337   2.428       .  S
Zr331       O339   2.376       .  S
Zr331       O340   2.420       .  S
Zr331       O341   2.416       .  S
Zr331       O342   2.388       .  S
O332        H388   0.991       .  S
O332        H396   0.990       .  S
O333        C353   1.269       .  A
O334        C355   1.288       .  A
O335       Zr345   2.652       .  S
O335        C354   1.329       .  A
O336       Zr344   2.418       .  S
O336        C355   1.282       .  A
O337        C354   1.281       .  A
O338       Zr346   2.423       .  S
O338        C353   1.268       .  A
O339       Zr344   2.370       .  S
O339       Zr346   2.392       .  S
O340       Zr345   2.401       .  S
O340       Zr346   2.422       .  S
O340        H375   0.966       .  S
O341       Zr344   2.401       .  S
O341       Zr361   2.407       .  S
O341        H378   0.962       .  S
O342       Zr345   2.384       .  S
O342       Zr361   2.359       .  S
Zr343       O368   2.457       .  S
Zr343       O362   2.464       .  S
Zr343       O370   2.436       .  S
Zr343       O358   2.417       .  S
Zr343       O350   2.427       .  S
Zr343       O351   2.366       .  S
Zr343       O352   2.395       .  S
Zr343       O349   2.308       .  S
Zr344       O363   2.441       .  S
Zr344       O356   2.434       .  S
Zr344       O357   2.420       .  S
Zr344       O350   2.403       .  S
Zr344       O351   2.363       .  S
Zr345       O347   2.441       .  S
Zr345       O369   2.440       .  S
Zr345       O371   2.656       .  S
Zr345       O352   2.425       .  S
Zr345       O349   2.275       .  S
Zr346       O372   2.443       .  S
Zr346       O373   2.435       .  S
Zr346       O348   2.455       .  S
Zr346       O350   2.435       .  S
Zr346       O349   2.305       .  S
O347        H384   0.990       .  S
O348        H379   0.991       .  S
O348        H393   0.989       .  S
O350        H376   0.965       .  S
O351       Zr361   2.365       .  S
O352       Zr361   2.414       .  S
O352        H377   0.965       .  S
C353       C5029   1.469       .  S
C354       C5090   1.545       .  S
C355       C4978   1.489       .  S
O356        H392   0.990       .  S
O357        C359   1.282       .  A
O358        C359   1.278       .  A
C359       C4994   1.478       .  S
O360       Zr361   2.440       .  S
O360        H389   0.990       .  S
Zr361       O364   2.441       .  S
Zr361       O365   2.443       .  S
Zr361       O366   2.404       .  S
O362        C367   1.285       .  A
O363        H380   0.990       .  S
O363        H395   0.990       .  S
O364        H381   0.991       .  S
O365        H385   0.990       .  S
O365        H394   0.990       .  S
O366        C367   1.274       .  A
C367       C5042   1.477       .  S
O368        H387   0.991       .  S
O368        H391   0.989       .  S
O369        H383   0.990       .  S
O369        H390   0.990       .  S
O370        C374   1.276       .  A
O371        C374   1.327       .  A
O372        H382   0.990       .  S
O373        H386   0.991       .  S
C374       C5010   1.569       .  S
Zr397       O398   2.443       .  S
Zr397       O399   2.409       .  S
Zr397       O400   2.414       .  S
Zr397       O403   2.390       .  S
Zr397       O405   2.363       .  S
Zr397       O406   2.400       .  S
Zr397       O407   2.407       .  S
Zr397       O408   2.375       .  S
O398        H454   0.990       .  S
O398        H462   0.991       .  S
O399        C419   1.276       .  A
O400        C421   1.272       .  A
O401       Zr411   2.652       .  S
O401        C420   1.330       .  A
O402       Zr410   2.448       .  S
O402        C421   1.282       .  A
O403        C420   1.275       .  A
O404       Zr412   2.400       .  S
O404        C419   1.277       .  A
O405       Zr410   2.395       .  S
O405       Zr412   2.348       .  S
O406       Zr411   2.400       .  S
O406       Zr412   2.412       .  S
O406        H441   0.965       .  S
O407       Zr410   2.403       .  S
O407       Zr427   2.412       .  S
O407        H444   0.967       .  S
O408       Zr411   2.374       .  S
O408       Zr427   2.359       .  S
Zr409       O434   2.441       .  S
Zr409       O428   2.413       .  S
Zr409       O436   2.396       .  S
Zr409       O424   2.369       .  S
Zr409       O415   2.387       .  S
Zr409       O416   2.401       .  S
Zr409       O417   2.368       .  S
Zr409       O418   2.384       .  S
Zr410       O429   2.436       .  S
Zr410       O422   2.436       .  S
Zr410       O423   2.453       .  S
Zr410       O416   2.398       .  S
Zr410       O417   2.384       .  S
Zr411       O413   2.435       .  S
Zr411       O435   2.436       .  S
Zr411       O437   2.651       .  S
Zr411       O415   2.390       .  S
Zr411       O418   2.402       .  S
Zr412       O438   2.436       .  S
Zr412       O439   2.438       .  S
Zr412       O414   2.441       .  S
Zr412       O415   2.381       .  S
Zr412       O416   2.405       .  S
O413        H450   0.990       .  S
O414        H445   0.988       .  S
O414        H459   0.990       .  S
O416        H442   0.966       .  S
O417       Zr427   2.356       .  S
O418       Zr427   2.400       .  S
O418        H443   0.966       .  S
C419       C4946   1.461       .  S
C420       C4930   1.544       .  S
C421       C4898   1.465       .  S
O422        H458   0.990       .  S
O423        C425   1.291       .  A
O424        C425   1.271       .  A
C425       C4914   1.479       .  S
O426       Zr427   2.432       .  S
O426        H455   0.990       .  S
Zr427       O430   2.436       .  S
Zr427       O431   2.436       .  S
Zr427       O432   2.408       .  S
O428        C433   1.280       .  A
O429        H446   0.990       .  S
O429        H461   0.990       .  S
O430        H447   0.990       .  S
O431        H451   0.990       .  S
O431        H460   0.990       .  S
O432        C433   1.279       .  A
C433       C4962   1.467       .  S
O434        H453   0.990       .  S
O434        H457   0.990       .  S
O435        H449   0.991       .  S
O435        H456   0.990       .  S
O436        C440   1.272       .  A
O437        C440   1.324       .  A
O438        H448   0.990       .  S
O439        H452   0.990       .  S
C440       C5013   1.567       .  S
Zr463       O464   2.447       .  S
Zr463       O465   2.454       .  S
Zr463       O466   2.415       .  S
Zr463       O469   2.442       .  S
Zr463       O471   2.371       .  S
Zr463       O472   2.401       .  S
Zr463       O473   2.426       .  S
Zr463       O474   2.376       .  S
O464        H520   0.990       .  S
O464        H528   0.990       .  S
O465        C485   1.287       .  A
O466        C487   1.277       .  A
O467       Zr477   2.645       .  S
O467        C486   1.325       .  A
O468       Zr476   2.436       .  S
O468        C487   1.281       .  A
O469        C486   1.276       .  A
O470       Zr478   2.361       .  S
O470        C485   1.267       .  A
O471       Zr476   2.386       .  S
O471       Zr478   2.374       .  S
O472       Zr477   2.425       .  S
O472       Zr478   2.411       .  S
O472        H507   0.966       .  S
O473       Zr476   2.401       .  S
O473       Zr493   2.445       .  S
O473        H510   0.966       .  S
O474       Zr477   2.339       .  S
O474       Zr493   2.354       .  S
Zr475       O500   2.438       .  S
Zr475       O494   2.423       .  S
Zr475       O502   2.433       .  S
Zr475       O490   2.452       .  S
Zr475       O481   2.373       .  S
Zr475       O482   2.411       .  S
Zr475       O483   2.393       .  S
Zr475       O484   2.413       .  S
Zr476       O495   2.437       .  S
Zr476       O488   2.433       .  S
Zr476       O489   2.421       .  S
Zr476       O482   2.410       .  S
Zr476       O483   2.394       .  S
Zr477       O479   2.435       .  S
Zr477       O501   2.435       .  S
Zr477       O503   2.628       .  S
Zr477       O481   2.367       .  S
Zr477       O484   2.407       .  S
Zr478       O504   2.436       .  S
Zr478       O505   2.430       .  S
Zr478       O480   2.440       .  S
Zr478       O481   2.350       .  S
Zr478       O482   2.387       .  S
O479        H516   0.990       .  S
O480        H511   0.991       .  S
O480        H525   0.990       .  S
O482        H508   0.965       .  S
O483       Zr493   2.393       .  S
O484       Zr493   2.420       .  S
O484        H509   0.966       .  S
C485       C4882   1.463       .  S
C486       C5106   1.550       .  S
C487       C4834   1.496       .  S
O488        H524   0.991       .  S
O489        C491   1.280       .  A
O490        C491   1.288       .  A
C491       C4850   1.493       .  S
O492       Zr493   2.436       .  S
O492        H521   0.991       .  S
Zr493       O496   2.438       .  S
Zr493       O497   2.443       .  S
Zr493       O498   2.415       .  S
O494        C499   1.270       .  A
O495        H512   0.990       .  S
O495        H527   0.990       .  S
O496        H513   0.989       .  S
O497        H517   0.990       .  S
O497        H526   0.990       .  S
O498        C499   1.272       .  A
C499       C4869   1.465       .  S
O500        H519   0.988       .  S
O500        H523   0.991       .  S
O501        H515   0.990       .  S
O501        H522   0.990       .  S
O502        C506   1.283       .  A
O503        C506   1.325       .  A
O504        H514   0.990       .  S
O505        H518   0.990       .  S
C506       C4933   1.540       .  S
Zr529       O530   2.450       .  S
Zr529       O531   2.464       .  S
Zr529       O532   2.325   1_545  S
Zr529       O535   2.403       .  S
Zr529       O537   2.379       .  S
Zr529       O538   2.380       .  S
Zr529       O539   2.444   1_545  S
Zr529       O540   2.406   1_545  S
O530        H586   0.990       .  S
O530        H594   0.991       .  S
O531        C551   1.283       .  A
O532        C553   1.259       .  A
O533       Zr543   2.432   1_554  S
O533        C552   1.283       .  A
O534       Zr542   2.720   1_554  S
O534        C553   1.342       .  A
O535        C552   1.275       .  A
O536       Zr544   2.419   1_554  S
O536        C551   1.273       .  A
O537       Zr542   2.379   1_544  S
O537       Zr544   2.381   1_554  S
O538       Zr543   2.397   1_554  S
O538       Zr544   2.363   1_554  S
O538        H573   0.965       .  S
O539       Zr542   2.394   1_554  S
O539       Zr559   2.380   1_554  S
O539        H576   0.965       .  S
O540       Zr543   2.395   1_564  S
O540       Zr559   2.420   1_554  S
Zr541       O566   2.448       .  S
Zr541       O560   2.455       .  S
Zr541       O568   2.437   1_565  S
Zr541       O556   2.413       .  S
Zr541       O547   2.398   1_565  S
Zr541       O548   2.427   1_565  S
Zr541       O549   2.399       .  S
Zr541       O550   2.379       .  S
Zr542       O561   2.434       .  S
Zr542       O554   2.435       .  S
Zr542       O555   2.647       .  S
Zr542       O548   2.433   1_565  S
Zr542       O549   2.437       .  S
Zr543       O545   2.434   1_545  S
Zr543       O567   2.440       .  S
Zr543       O569   2.434       .  S
Zr543       O547   2.398       .  S
Zr543       O550   2.381   1_545  S
Zr544       O570   2.438       .  S
Zr544       O571   2.435       .  S
Zr544       O546   2.438       .  S
Zr544       O547   2.386       .  S
Zr544       O548   2.380       .  S
O545        H582   0.990   1_566  S
O546        H577   0.990       .  S
O546        H591   0.990       .  S
O548        H574   0.961       .  S
O549       Zr559   2.395       .  S
O550       Zr559   2.378       .  S
O550        H575   0.965       .  S
C551       C4805   1.470       .  S
C552       C4754   1.467       .  S
C553       C4770   1.567       .  S
O554        H590   0.990       .  S
O555        C557   1.330       .  A
O556        C557   1.278       .  A
C557       C4786   1.562       .  S
O558       Zr559   2.439   1_554  S
O558        H587   0.990       .  S
Zr559       O562   2.437       .  S
Zr559       O563   2.438   1_556  S
Zr559       O564   2.418       .  S
O560        C565   1.286       .  A
O561        H578   0.990       .  S
O561        H593   0.990       .  S
O562        H579   0.990       .  S
O563        H583   0.990       .  S
O563        H592   0.990       .  S
O564        C565   1.278       .  A
C565       C4821   1.484       .  S
O566        H585   0.991       .  S
O566        H589   0.991   1_565  S
O567        H581   0.990       .  S
O567        H588   0.990       .  S
O568        C572   1.283       .  A
O569        C572   1.282       .  A
O570        H580   0.990       .  S
O571        H584   0.989       .  S
C572       C4738   1.473       .  S
Zr595       O596   2.443       .  S
Zr595       O597   2.428       .  S
Zr595       O598   2.382       .  S
Zr595       O601   2.398       .  S
Zr595       O603   2.393       .  S
Zr595       O604   2.372       .  S
Zr595       O605   2.410       .  S
Zr595       O606   2.385       .  S
O596        H652   0.991       .  S
O596        H660   0.990       .  S
O597        C617   1.282       .  A
O598        C619   1.273       .  A
O599       Zr609   2.427       .  S
O599        C618   1.281       .  A
O600       Zr608   2.673       .  S
O600        C619   1.335       .  A
O601        C618   1.277       .  A
O602       Zr610   2.406       .  S
O602        C617   1.277       .  A
O603       Zr608   2.430       .  S
O603       Zr610   2.393       .  S
O604       Zr609   2.382       .  S
O604       Zr610   2.381       .  S
O604        H639   0.966       .  S
O605       Zr608   2.418       .  S
O605       Zr625   2.381       .  S
O605        H642   0.965       .  S
O606       Zr609   2.400       .  S
O606       Zr625   2.394       .  S
Zr607       O632   2.442       .  S
Zr607       O626   2.416       .  S
Zr607       O634   2.407       .  S
Zr607       O622   2.352       .  S
Zr607       O613   2.380       .  S
Zr607       O614   2.425       .  S
Zr607       O615   2.403       .  S
Zr607       O616   2.381       .  S
Zr608       O627   2.436   1_565  S
Zr608       O620   2.433       .  S
Zr608       O621   2.704       .  S
Zr608       O614   2.419       .  S
Zr608       O615   2.389       .  S
Zr609       O611   2.435       .  S
Zr609       O633   2.435       .  S
Zr609       O635   2.437       .  S
Zr609       O613   2.391       .  S
Zr609       O616   2.380       .  S
Zr610       O636   2.436       .  S
Zr610       O637   2.435       .  S
Zr610       O612   2.438       .  S
Zr610       O613   2.404       .  S
Zr610       O614   2.371       .  S
O611        H648   0.990       .  S
O612        H643   0.989       .  S
O612        H657   0.989       .  S
O614        H640   0.966       .  S
O615       Zr625   2.371       .  S
O616       Zr625   2.357       .  S
O616        H641   0.963       .  S
C617       C4997   1.470       .  S
C618       C4965   1.460       .  S
C619       C4706   1.575       .  S
O620        H656   0.991       .  S
O621        C623   1.338       .  A
O622        C623   1.261       .  A
C623       C4789   1.584       .  S
O624       Zr625   2.436       .  S
O624        H653   0.990       .  S
Zr625       O628   2.436       .  S
Zr625       O629   2.437       .  S
Zr625       O630   2.426       .  S
O626        C631   1.277       .  A
O627        H644   0.990       .  S
O627        H659   0.990       .  S
O628        H645   0.990       .  S
O629        H649   0.989       .  S
O629        H658   0.991       .  S
O630        C631   1.278       .  A
C631       C4725   1.456       .  S
O632        H651   0.990       .  S
O632        H655   0.990       .  S
O633        H647   0.990       .  S
O633        H654   0.991       .  S
O634        C638   1.280       .  A
O635        C638   1.286       .  A
O636        H646   0.990       .  S
O637        H650   0.990       .  S
C638       C4690   1.477       .  S
Zr661       O662   2.452       .  S
Zr661       O663   2.464       .  S
Zr661       O664   2.425       .  S
Zr661       O667   2.454   1_545  S
Zr661       O669   2.401       .  S
Zr661       O670   2.387       .  S
Zr661       O671   2.430   1_545  S
Zr661       O672   2.401   1_545  S
O662        H718   0.989   1_545  S
O662        H726   0.989       .  S
O663        C683   1.287       .  A
O664        C685   1.282       .  A
O665       Zr675   2.431       .  S
O665        C684   1.282       .  A
O666       Zr674   2.659       .  S
O666        C685   1.331       .  A
O667        C684   1.287       .  A
O668       Zr676   2.419       .  S
O668        C683   1.280       .  A
O669       Zr674   2.438       .  S
O669       Zr676   2.401       .  S
O670       Zr675   2.367   1_545  S
O670       Zr676   2.385       .  S
O670        H705   0.966       .  S
O671       Zr674   2.426   1_565  S
O671       Zr691   2.376       .  S
O671        H708   0.959       .  S
O672       Zr675   2.395       .  S
O672       Zr691   2.369       .  S
Zr673       O698   2.460       .  S
Zr673       O692   2.463       .  S
Zr673       O700   2.435       .  S
Zr673       O688   2.341   1_565  S
Zr673       O679   2.406   1_565  S
Zr673       O680   2.440   1_565  S
Zr673       O682   2.376       .  S
Zr673       O681   2.294       .  S
Zr674       O693   2.441       .  S
Zr674       O686   2.445       .  S
Zr674       O687   2.717       .  S
Zr674       O680   2.390       .  S
Zr674       O681   2.307   1_545  S
Zr675       O677   2.438       .  S
Zr675       O699   2.437   1_565  S
Zr675       O701   2.412       .  S
Zr675       O679   2.396   1_565  S
Zr675       O682   2.407       .  S
Zr676       O702   2.437       .  S
Zr676       O703   2.438       .  S
Zr676       O678   2.436       .  S
Zr676       O679   2.420       .  S
Zr676       O680   2.379       .  S
O677        H714   0.991       .  S
O678        H709   0.990       .  S
O678        H723   0.990       .  S
O680        H706   0.965       .  S
O681       Zr691   2.303       .  S
O682       Zr691   2.357       .  S
O682        H707   0.963       .  S
C683       C4677   1.490       .  S
C684       C4642   1.475       .  S
C685       C4658   1.570       .  S
O686        H722   0.990       .  S
O687        C689   1.342       .  A
O688        C689   1.261       .  A
C689       C4709   1.574       .  S
O690       Zr691   2.446       .  S
O690        H719   0.990       .  S
Zr691       O694   2.439       .  S
Zr691       O695   2.449       .  S
Zr691       O696   2.388       .  S
O692        C697   1.284       .  A
O693        H710   0.990       .  S
O693        H725   0.991       .  S
O694        H711   0.990       .  S
O695        H715   0.990       .  S
O695        H724   0.990       .  S
O696        C697   1.273       .  A
C697       C4917   1.462       .  S
O698        H717   0.988       .  S
O698        H721   0.992       .  S
O699        H713   0.990       .  S
O699        H720   0.990       .  S
O700        C704   1.276       .  A
O701        C704   1.278       .  A
O702        H712   0.991       .  S
O703        H716   0.991       .  S
C704       C5045   1.462       .  S
Zr727       O728   2.449       .  S
Zr727       O729   2.458       .  S
Zr727       O730   2.403       .  S
Zr727       O733   2.405       .  S
Zr727       O735   2.391       .  S
Zr727       O736   2.375       .  S
Zr727       O737   2.430       .  S
Zr727       O738   2.400       .  S
O728        H784   0.991       .  S
O728        H792   0.989       .  S
O729        C749   1.286       .  A
O730        C751   1.275       .  A
O731       Zr741   2.444       .  S
O731        C750   1.283       .  A
O732       Zr740   2.666       .  S
O732        C751   1.333       .  A
O733        C750   1.277       .  A
O734       Zr742   2.411       .  S
O734        C749   1.278       .  A
O735       Zr740   2.430       .  S
O735       Zr742   2.394       .  S
O736       Zr741   2.383       .  S
O736       Zr742   2.384       .  S
O736        H771   0.964       .  S
O737       Zr740   2.420       .  S
O737       Zr757   2.376       .  S
O737        H774   0.961       .  S
O738       Zr741   2.393       .  S
O738       Zr757   2.390       .  S
Zr739       O764   2.441       .  S
Zr739       O758   2.414       .  S
Zr739       O766   2.409       .  S
Zr739       O754   2.336       .  S
Zr739       O745   2.377       .  S
Zr739       O746   2.415       .  S
Zr739       O747   2.392       .  S
Zr739       O748   2.375       .  S
Zr740       O759   2.433   1_545  S
Zr740       O752   2.434       .  S
Zr740       O753   2.685       .  S
Zr740       O746   2.426       .  S
Zr740       O747   2.380       .  S
Zr741       O743   2.435       .  S
Zr741       O765   2.434       .  S
Zr741       O767   2.445       .  S
Zr741       O745   2.393       .  S
Zr741       O748   2.391       .  S
Zr742       O768   2.437       .  S
Zr742       O769   2.437       .  S
Zr742       O744   2.441       .  S
Zr742       O745   2.413       .  S
Zr742       O746   2.388       .  S
O743        H780   0.990       .  S
O744        H775   0.990       .  S
O744        H789   0.990       .  S
O746        H772   0.966       .  S
O747       Zr757   2.361       .  S
O748       Zr757   2.352       .  S
O748        H773   0.964       .  S
C749       C4610   1.487       .  S
C750       C4594   1.465       .  S
C751       C4773   1.568   1_545  S
O752        H788   0.991       .  S
O753        C755   1.339       .  A
O754        C755   1.264       .  A
C755       C4661   1.552       .  S
O756       Zr757   2.434       .  S
O756        H785   0.990       .  S
Zr757       O760   2.436       .  S
Zr757       O761   2.438       .  S
Zr757       O762   2.428       .  S
O758        C763   1.278       .  A
O759        H776   0.990       .  S
O759        H791   0.990       .  S
O760        H777   0.990   1_545  S
O761        H781   0.991       .  S
O761        H790   0.990       .  S
O762        C763   1.285       .  A
C763       C4626   1.457       .  S
O764        H783   0.989       .  S
O764        H787   0.991       .  S
O765        H779   0.990       .  S
O765        H786   0.990       .  S
O766        C770   1.280       .  A
O767        C770   1.287       .  A
O768        H778   0.990       .  S
O769        H782   0.990       .  S
C770       C4581   1.479       .  S
Zr793       O794   2.445       .  S
Zr793       O795   2.443       .  S
Zr793       O796   2.338       .  S
Zr793       O799   2.419       .  S
Zr793       O801   2.391       .  S
Zr793       O802   2.379       .  S
Zr793       O803   2.443       .  S
Zr793       O804   2.392       .  S
O794        H850   0.990       .  S
O794        H858   0.990       .  S
O795        C815   1.279       .  A
O796        C817   1.260       .  A
O797       Zr807   2.419       .  S
O797        C816   1.281       .  A
O798       Zr806   2.711       .  S
O798        C817   1.341       .  A
O799        C816   1.281       .  A
O800       Zr808   2.427       .  S
O800        C815   1.277       .  A
O801       Zr806   2.377       .  S
O801       Zr808   2.375       .  S
O802       Zr807   2.379       .  S
O802       Zr808   2.361       .  S
O802        H837   0.965       .  S
O803       Zr806   2.406       .  S
O803       Zr823   2.375       .  S
O803        H840   0.964       .  S
O804       Zr807   2.391       .  S
O804       Zr823   2.414       .  S
Zr805       O830   2.450       .  S
Zr805       O824   2.468       .  S
Zr805       O832   2.439       .  S
Zr805       O820   2.421       .  S
Zr805       O811   2.398       .  S
Zr805       O812   2.433       .  S
Zr805       O813   2.402       .  S
Zr805       O814   2.375       .  S
Zr806       O825   2.434       .  S
Zr806       O818   2.438   1_554  S
Zr806       O819   2.652       .  S
Zr806       O812   2.429       .  S
Zr806       O813   2.445       .  S
Zr807       O809   2.435       .  S
Zr807       O831   2.440       .  S
Zr807       O833   2.412       .  S
Zr807       O811   2.391       .  S
Zr807       O814   2.369       .  S
Zr808       O834   2.434       .  S
Zr808       O835   2.437       .  S
Zr808       O810   2.437       .  S
Zr808       O811   2.384       .  S
Zr808       O812   2.377       .  S
O809        H846   0.990       .  S
O810        H841   0.990       .  S
O810        H855   0.989   1_554  S
O812        H838   0.964       .  S
O813       Zr823   2.401       .  S
O814       Zr823   2.377       .  S
O814        H839   0.965       .  S
C815       C5397   1.462   1_554  S
C816       C5269   1.476       .  S
C817       C4546   1.569       .  S
O818        H854   0.989       .  S
O819        C821   1.329       .  A
O820        C821   1.278       .  A
C821       C4530   1.567   1_554  S
O822       Zr823   2.440       .  S
O822        H851   0.991       .  S
Zr823       O826   2.437       .  S
Zr823       O827   2.439       .  S
Zr823       O828   2.414       .  S
O824        C829   1.289       .  A
O825        H842   0.990   1_554  S
O825        H857   0.990       .  S
O826        H843   0.990       .  S
O827        H847   0.990       .  S
O827        H856   0.990       .  S
O828        C829   1.280       .  A
C829       C4562   1.497       .  S
O830        H849   0.991       .  S
O830        H853   0.990       .  S
O831        H845   0.990       .  S
O831        H852   0.991       .  S
O832        C836   1.286       .  A
O833        C836   1.279       .  A
O834        H844   0.990       .  S
O835        H848   0.990       .  S
C836       C4517   1.475       .  S
Zr859       O860   2.449       .  S
Zr859       O861   2.462   1_556  S
Zr859       O862   2.402       .  S
Zr859       O865   2.416       .  S
Zr859       O867   2.396   1_556  S
Zr859       O868   2.375   1_556  S
Zr859       O869   2.429       .  S
Zr859       O870   2.397       .  S
O860        H916   0.990   1_556  S
O860        H924   0.991       .  S
O861        C881   1.288       .  A
O862        C883   1.275   1_556  A
O863       Zr873   2.419       .  S
O863        C882   1.278       .  A
O864       Zr872   2.653       .  S
O864        C883   1.330       .  A
O865        C882   1.280       .  A
O866       Zr874   2.407       .  S
O866        C881   1.278       .  A
O867       Zr872   2.433       .  S
O867       Zr874   2.396       .  S
O868       Zr873   2.380   1_554  S
O868       Zr874   2.385       .  S
O868        H903   0.967       .  S
O869       Zr872   2.418   1_556  S
O869       Zr889   2.383       .  S
O869        H906   0.964       .  S
O870       Zr873   2.395       .  S
O870       Zr889   2.397       .  S
Zr871       O896   2.437   1_556  S
Zr871       O890   2.392       .  S
Zr871       O898   2.410       .  S
Zr871       O886   2.327       .  S
Zr871       O877   2.376   1_556  S
Zr871       O878   2.408   1_556  S
Zr871       O879   2.393       .  S
Zr871       O880   2.371       .  S
Zr872       O891   2.435   1_554  S
Zr872       O884   2.433       .  S
Zr872       O885   2.675       .  S
Zr872       O878   2.420       .  S
Zr872       O879   2.386   1_554  S
Zr873       O875   2.435       .  S
Zr873       O897   2.434       .  S
Zr873       O899   2.436       .  S
Zr873       O877   2.387   1_556  S
Zr873       O880   2.380       .  S
Zr874       O900   2.436       .  S
Zr874       O901   2.441       .  S
Zr874       O876   2.437       .  S
Zr874       O877   2.408       .  S
Zr874       O878   2.379       .  S
O875        H912   0.990       .  S
O876        H907   0.990       .  S
O876        H921   0.990       .  S
O878        H904   0.966       .  S
O879       Zr889   2.363       .  S
O880       Zr889   2.350       .  S
O880        H905   0.965       .  S
C881       C5234   1.485       .  S
C882       C5445   1.469       .  S
C883       C4549   1.567       .  S
O884        H920   0.990       .  S
O885        C887   1.336       .  A
O886        C887   1.266   1_556  A
C887       C4482   1.549       .  S
O888       Zr889   2.438       .  S
O888        H917   0.990       .  S
Zr889       O892   2.435       .  S
Zr889       O893   2.439       .  S
Zr889       O894   2.434       .  S
O890        C895   1.274       .  A
O891        H908   0.990       .  S
O891        H923   0.991       .  S
O892        H909   0.991       .  S
O893        H913   0.990       .  S
O893        H922   0.990       .  S
O894        C895   1.286       .  A
C895       C4501   1.453       .  S
O896        H915   0.991   1_554  S
O896        H919   0.990       .  S
O897        H911   0.990       .  S
O897        H918   0.990       .  S
O898        C902   1.277       .  A
O899        C902   1.287       .  A
O900        H910   0.990       .  S
O901        H914   0.990       .  S
C902       C4466   1.489       .  S
Zr925       O926   2.449       .  S
Zr925       O927   2.461       .  S
Zr925       O928   2.434       .  S
Zr925       O931   2.440       .  S
Zr925       O933   2.399       .  S
Zr925       O934   2.380       .  S
Zr925       O935   2.428       .  S
Zr925       O936   2.399       .  S
O926        H982   0.990       .  S
O926        H990   0.990       .  S
O927        C947   1.287       .  A
O928        C949   1.282       .  A
O929       Zr939   2.409       .  S
O929        C948   1.279       .  A
O930       Zr938   2.631       .  S
O930        C949   1.325       .  A
O931        C948   1.285       .  A
O932       Zr940   2.402       .  S
O932        C947   1.277       .  A
O933       Zr938   2.437       .  S
O933       Zr940   2.395       .  S
O934       Zr939   2.371       .  S
O934       Zr940   2.381       .  S
O934        H969   0.964       .  S
O935       Zr938   2.437       .  S
O935       Zr955   2.366       .  S
O935        H972   0.963       .  S
O936       Zr939   2.401       .  S
O936       Zr955   2.381       .  S
Zr937       O962   2.448       .  S
Zr937       O956   2.447       .  S
Zr937       O964   2.405       .  S
Zr937       O952   2.320       .  S
Zr937       O943   2.387       .  S
Zr937       O944   2.428       .  S
Zr937       O945   2.377       .  S
Zr937       O946   2.377       .  S
Zr938       O957   2.437   1_556  S
Zr938       O950   2.433       .  S
Zr938       O951   2.716       .  S
Zr938       O944   2.388       .  S
Zr938       O945   2.375       .  S
Zr939       O941   2.437       .  S
Zr939       O963   2.436       .  S
Zr939       O965   2.426       .  S
Zr939       O943   2.384       .  S
Zr939       O946   2.387       .  S
Zr940       O966   2.436       .  S
Zr940       O967   2.437       .  S
Zr940       O942   2.439       .  S
Zr940       O943   2.419       .  S
Zr940       O944   2.368       .  S
O941        H978   0.990       .  S
O942        H973   0.990       .  S
O942        H987   0.990       .  S
O944        H970   0.964       .  S
O945       Zr955   2.380       .  S
O946       Zr955   2.358       .  S
O946        H971   0.965       .  S
C947       C4434   1.486       .  S
C948       C4386   1.469       .  S
C949       C4485   1.555       .  S
O950        H986   0.990   1_556  S
O951        C953   1.343       .  A
O952        C953   1.258       .  A
C953       C4418   1.562       .  S
O954       Zr955   2.439       .  S
O954        H983   0.991       .  S
Zr955       O958   2.438       .  S
Zr955       O959   2.442       .  S
Zr955       O960   2.405       .  S
O956        C961   1.283       .  A
O957        H974   0.990       .  S
O957        H989   0.990       .  S
O958        H975   0.990       .  S
O959        H979   0.990       .  S
O959        H988   0.990       .  S
O960        C961   1.277       .  A
C961       C4450   1.456       .  S
O962        H981   0.990       .  S
O962        H985   0.991       .  S
O963        H977   0.990       .  S
O963        H984   0.990       .  S
O964        C968   1.274       .  A
O965        C968   1.283       .  A
O966        H976   0.990       .  S
O967        H980   0.990       .  S
C968       C4402   1.469       .  S
Zr991       O992   2.450   1_554  S
Zr991       O993   2.463   1_554  S
Zr991       O994   2.414   1_554  S
Zr991       O997   2.438       .  S
Zr991       O999   2.403   1_554  S
Zr991      O1000   2.373   1_554  S
Zr991      O1001   2.432       .  S
Zr991      O1002   2.400       .  S
O992       H1048   0.991       .  S
O992       H1056   0.990   1_556  S
O993       C1013   1.287       .  A
O994       C1015   1.278       .  A
O995      Zr1005   2.420       .  S
O995       C1014   1.280       .  A
O996      Zr1004   2.660       .  S
O996       C1015   1.331       .  A
O997       C1014   1.284       .  A
O998      Zr1006   2.421       .  S
O998       C1013   1.280       .  A
O999      Zr1004   2.438       .  S
O999      Zr1006   2.388       .  S
O1000     Zr1005   2.389   1_556  S
O1000     Zr1006   2.383       .  S
O1000      H1035   0.965       .  S
O1001     Zr1004   2.433   1_554  S
O1001     Zr1021   2.359       .  S
O1001      H1038   0.959       .  S
O1002     Zr1005   2.399       .  S
O1002     Zr1021   2.400       .  S
Zr1003     O1028   2.441       .  S
Zr1003     O1022   2.422       .  S
Zr1003     O1030   2.412       .  S
Zr1003     O1018   2.322       .  S
Zr1003     O1009   2.380   1_655  S
Zr1003     O1010   2.414   1_654  S
Zr1003     O1011   2.390   1_655  S
Zr1003     O1012   2.367   1_655  S
Zr1004     O1023   2.435       .  S
Zr1004     O1016   2.433       .  S
Zr1004     O1017   2.715   1_455  S
Zr1004     O1010   2.413       .  S
Zr1004     O1011   2.380   1_556  S
Zr1005     O1007   2.432       .  S
Zr1005     O1029   2.434       .  S
Zr1005     O1031   2.452   1_455  S
Zr1005     O1009   2.387       .  S
Zr1005     O1012   2.382       .  S
Zr1006     O1032   2.433       .  S
Zr1006     O1033   2.438   1_455  S
Zr1006     O1008   2.436       .  S
Zr1006     O1009   2.421   1_556  S
Zr1006     O1010   2.379       .  S
O1007      H1044   0.991       .  S
O1008      H1039   0.990       .  S
O1008      H1053   0.990       .  S
O1010      H1036   0.963   1_455  S
O1011     Zr1021   2.372       .  S
O1012     Zr1021   2.343       .  S
O1012      H1037   0.965       .  S
C1013      C4373   1.493       .  S
C1014      C4341   1.474       .  S
C1015      C4421   1.567       .  S
O1016      H1052   0.990       .  S
O1017      C1019   1.346       .  A
O1018      C1019   1.264   1_554  A
C1019      C4533   1.560       .  S
O1020     Zr1021   2.437       .  S
O1020      H1049   0.990       .  S
Zr1021     O1024   2.437       .  S
Zr1021     O1025   2.439       .  S
Zr1021     O1026   2.423       .  S
O1022      C1027   1.280       .  A
O1023      H1040   0.990       .  S
O1023      H1055   0.990   1_556  S
O1024      H1041   0.990       .  S
O1025      H1045   0.990       .  S
O1025      H1054   0.990       .  S
O1026      C1027   1.283   1_455  A
C1027      C4354   1.459       .  S
O1028      H1047   0.991       .  S
O1028      H1051   0.990       .  S
O1029      H1043   0.990       .  S
O1029      H1050   0.989       .  S
O1030      C1034   1.282       .  A
O1031      C1034   1.287       .  A
O1032      H1042   0.990       .  S
O1033      H1046   0.990       .  S
C1034      C4325   1.491       .  S
Zr1057     O1058   2.443       .  S
Zr1057     O1059   2.428       .  S
Zr1057     O1060   2.384       .  S
Zr1057     O1063   2.412       .  S
Zr1057     O1065   2.366       .  S
Zr1057     O1066   2.389       .  S
Zr1057     O1067   2.424       .  S
Zr1057     O1068   2.373       .  S
O1058      H1114   0.990       .  S
O1058      H1122   0.990   1_554  S
O1059      C1079   1.282       .  A
O1060      C1081   1.272       .  A
O1061     Zr1071   2.652       .  S
O1061      C1080   1.327       .  A
O1062     Zr1070   2.440       .  S
O1062      C1081   1.287       .  A
O1063      C1080   1.275   1_565  A
O1064     Zr1072   2.423       .  S
O1064      C1079   1.281       .  A
O1065     Zr1070   2.382       .  S
O1065     Zr1072   2.350       .  S
O1066     Zr1071   2.410   1_565  S
O1066     Zr1072   2.417       .  S
O1066      H1101   0.966       .  S
O1067     Zr1070   2.400       .  S
O1067     Zr1087   2.431       .  S
O1067      H1104   0.966       .  S
O1068     Zr1071   2.361   1_565  S
O1068     Zr1087   2.363       .  S
Zr1069     O1094   2.447       .  S
Zr1069     O1088   2.431   1_565  S
Zr1069     O1096   2.440   1_565  S
Zr1069     O1084   2.418       .  S
Zr1069     O1075   2.375       .  S
Zr1069     O1076   2.411       .  S
Zr1069     O1077   2.372       .  S
Zr1069     O1078   2.399   1_565  S
Zr1070     O1089   2.436       .  S
Zr1070     O1082   2.435       .  S
Zr1070     O1083   2.436       .  S
Zr1070     O1076   2.394       .  S
Zr1070     O1077   2.389       .  S
Zr1071     O1073   2.435       .  S
Zr1071     O1095   2.433       .  S
Zr1071     O1097   2.625       .  S
Zr1071     O1075   2.374   1_545  S
Zr1071     O1078   2.410       .  S
Zr1072     O1098   2.433       .  S
Zr1072     O1099   2.434       .  S
Zr1072     O1074   2.437       .  S
Zr1072     O1075   2.362       .  S
Zr1072     O1076   2.415       .  S
O1073      H1110   0.990       .  S
O1074      H1105   0.990       .  S
O1074      H1119   0.990       .  S
O1076      H1102   0.966       .  S
O1077     Zr1087   2.362       .  S
O1078     Zr1087   2.407   1_545  S
O1078      H1103   0.964       .  S
C1079      C4338   1.480       .  S
C1080      C4274   1.555   1_554  S
C1081      C4453   1.475       .  S
O1082      H1118   0.990       .  S
O1083      C1085   1.284       .  A
O1084      C1085   1.281       .  A
C1085      C4261   1.473       .  S
O1086     Zr1087   2.441       .  S
O1086      H1115   0.989       .  S
Zr1087     O1090   2.435       .  S
Zr1087     O1091   2.438   1_565  S
Zr1087     O1092   2.421       .  S
O1088      C1093   1.284       .  A
O1089      H1106   0.990       .  S
O1089      H1121   0.990       .  S
O1090      H1107   0.989       .  S
O1091      H1111   0.990       .  S
O1091      H1120   0.990       .  S
O1092      C1093   1.280   1_565  A
C1093      C4306   1.465       .  S
O1094      H1113   0.991       .  S
O1094      H1117   0.990       .  S
O1095      H1109   0.991       .  S
O1095      H1116   0.990       .  S
O1096      C1100   1.283       .  A
O1097      C1100   1.324       .  A
O1098      H1108   0.990   1_565  S
O1099      H1112   0.991       .  S
C1100      C4290   1.547       .  S
Zr1123     O1124   2.445       .  S
Zr1123     O1125   2.413       .  S
Zr1123     O1126   2.431       .  S
Zr1123     O1129   2.427       .  S
Zr1123     O1131   2.385       .  S
Zr1123     O1132   2.404       .  S
Zr1123     O1133   2.418   1_545  S
Zr1123     O1134   2.362   1_545  S
O1124      H1180   0.991       .  S
O1124      H1188   0.989       .  S
O1125      C1145   1.276       .  A
O1126      C1147   1.280       .  A
O1127     Zr1137   2.651       .  S
O1127      C1146   1.329       .  A
O1128     Zr1136   2.416   1_545  S
O1128      C1147   1.283       .  A
O1129      C1146   1.281   1_545  A
O1130     Zr1138   2.403       .  S
O1130      C1145   1.280       .  A
O1131     Zr1136   2.399   1_545  S
O1131     Zr1138   2.368       .  S
O1132     Zr1137   2.413   1_545  S
O1132     Zr1138   2.414       .  S
O1132      H1167   0.966       .  S
O1133     Zr1136   2.399       .  S
O1133     Zr1153   2.385       .  S
O1133      H1170   0.965       .  S
O1134     Zr1137   2.361       .  S
O1134     Zr1153   2.352       .  S
Zr1135     O1160   2.443       .  S
Zr1135     O1154   2.428       .  S
Zr1135     O1162   2.433       .  S
Zr1135     O1150   2.429       .  S
Zr1135     O1141   2.367   1_565  S
Zr1135     O1142   2.411       .  S
Zr1135     O1143   2.367       .  S
Zr1135     O1144   2.403       .  S
Zr1136     O1155   2.440       .  S
Zr1136     O1148   2.434   1_565  S
Zr1136     O1149   2.448       .  S
Zr1136     O1142   2.383       .  S
Zr1136     O1143   2.379       .  S
Zr1137     O1139   2.435       .  S
Zr1137     O1161   2.435   1_565  S
Zr1137     O1163   2.646   1_565  S
Zr1137     O1141   2.351   1_565  S
Zr1137     O1144   2.423       .  S
Zr1138     O1164   2.436       .  S
Zr1138     O1165   2.435       .  S
Zr1138     O1140   2.440       .  S
Zr1138     O1141   2.361       .  S
Zr1138     O1142   2.418   1_545  S
O1139      H1176   0.990       .  S
O1140      H1171   0.989       .  S
O1140      H1185   0.990       .  S
O1142      H1168   0.965       .  S
O1143     Zr1153   2.371       .  S
O1144     Zr1153   2.414       .  S
O1144      H1169   0.965       .  S
C1145      C4242   1.477       .  S
C1146      C4226   1.548       .  S
C1147      C4213   1.490       .  S
O1148      H1184   0.990       .  S
O1149      C1151   1.287       .  A
O1150      C1151   1.282       .  A
C1151      C4370   1.494       .  S
O1152     Zr1153   2.433       .  S
O1152      H1181   0.990       .  S
Zr1153     O1156   2.435       .  S
Zr1153     O1157   2.436       .  S
Zr1153     O1158   2.372       .  S
O1154      C1159   1.284       .  A
O1155      H1172   0.990       .  S
O1155      H1187   0.990       .  S
O1156      H1173   0.990       .  S
O1157      H1177   0.991       .  S
O1157      H1186   0.990       .  S
O1158      C1159   1.269       .  A
C1159      C4405   1.464       .  S
O1160      H1179   0.991       .  S
O1160      H1183   0.990       .  S
O1161      H1175   0.989       .  S
O1161      H1182   0.990       .  S
O1162      C1166   1.282       .  A
O1163      C1166   1.329   1_545  A
O1164      H1174   0.991       .  S
O1165      H1178   0.990       .  S
C1166      C4277   1.551   1_565  S
Zr1189     O1190   2.441       .  S
Zr1189     O1191   2.449       .  S
Zr1189     O1192   2.426       .  S
Zr1189     O1195   2.435       .  S
Zr1189     O1197   2.369       .  S
Zr1189     O1198   2.397       .  S
Zr1189     O1199   2.420       .  S
Zr1189     O1200   2.364       .  S
O1190      H1246   0.990       .  S
O1190      H1254   0.990       .  S
O1191      C1211   1.286       .  A
O1192      C1213   1.282       .  A
O1193     Zr1203   2.649   1_565  S
O1193      C1212   1.330       .  A
O1194     Zr1202   2.442       .  S
O1194      C1213   1.286       .  A
O1195      C1212   1.284   1_545  A
O1196     Zr1204   2.405       .  S
O1196      C1211   1.276       .  A
O1197     Zr1202   2.403       .  S
O1197     Zr1204   2.362       .  S
O1198     Zr1203   2.405       .  S
O1198     Zr1204   2.421       .  S
O1198      H1233   0.965   1_545  S
O1199     Zr1202   2.398       .  S
O1199     Zr1219   2.423       .  S
O1199      H1236   0.966       .  S
O1200     Zr1203   2.349       .  S
O1200     Zr1219   2.358       .  S
Zr1201     O1226   2.444       .  S
Zr1201     O1220   2.413       .  S
Zr1201     O1228   2.410       .  S
Zr1201     O1216   2.387       .  S
Zr1201     O1207   2.354       .  S
Zr1201     O1208   2.418       .  S
Zr1201     O1209   2.371       .  S
Zr1201     O1210   2.391       .  S
Zr1202     O1221   2.436       .  S
Zr1202     O1214   2.436       .  S
Zr1202     O1215   2.462       .  S
Zr1202     O1208   2.407       .  S
Zr1202     O1209   2.381       .  S
Zr1203     O1205   2.435   1_545  S
Zr1203     O1227   2.433   1_545  S
Zr1203     O1229   2.651       .  S
Zr1203     O1207   2.349       .  S
Zr1203     O1210   2.399       .  S
Zr1204     O1230   2.438       .  S
Zr1204     O1231   2.440       .  S
Zr1204     O1206   2.437       .  S
Zr1204     O1207   2.354       .  S
Zr1204     O1208   2.424       .  S
O1205      H1242   0.991       .  S
O1206      H1237   0.990       .  S
O1206      H1251   0.990       .  S
O1208      H1234   0.965       .  S
O1209     Zr1219   2.338       .  S
O1210     Zr1219   2.420       .  S
O1210      H1235   0.966       .  S
C1211      C4178   1.467   1_545  S
C1212      C4229   1.545       .  S
C1213      C4146   1.482       .  S
O1214      H1250   0.990       .  S
O1215      C1217   1.289       .  A
O1216      C1217   1.272       .  A
C1217      C4133   1.474       .  S
O1218     Zr1219   2.433       .  S
O1218      H1247   0.990       .  S
Zr1219     O1222   2.435       .  S
Zr1219     O1223   2.438       .  S
Zr1219     O1224   2.408       .  S
O1220      C1225   1.280       .  A
O1221      H1238   0.990       .  S
O1221      H1253   0.990       .  S
O1222      H1239   0.990       .  S
O1223      H1243   0.989       .  S
O1223      H1252   0.990       .  S
O1224      C1225   1.278       .  A
C1225      C4194   1.462       .  S
O1226      H1245   0.990       .  S
O1226      H1249   0.988       .  S
O1227      H1241   0.991       .  S
O1227      H1248   0.990       .  S
O1228      C1232   1.274       .  A
O1229      C1232   1.327       .  A
O1230      H1240   0.989       .  S
O1231      H1244   0.989       .  S
C1232      C4162   1.551       .  S
Zr1255     O1256   2.445       .  S
Zr1255     O1257   2.449       .  S
Zr1255     O1258   2.407       .  S
Zr1255     O1261   2.403       .  S
Zr1255     O1263   2.364       .  S
Zr1255     O1264   2.399       .  S
Zr1255     O1265   2.422       .  S
Zr1255     O1266   2.388       .  S
O1256      H1312   0.991       .  S
O1256      H1320   0.990       .  S
O1257      C1277   1.285       .  A
O1258      C1279   1.273       .  A
O1259     Zr1269   2.656       .  S
O1259      C1278   1.331       .  A
O1260     Zr1268   2.439       .  S
O1260      C1279   1.280       .  A
O1261      C1278   1.275       .  A
O1262     Zr1270   2.388       .  S
O1262      C1277   1.272       .  A
O1263     Zr1268   2.378       .  S
O1263     Zr1270   2.362       .  S
O1264     Zr1269   2.417       .  S
O1264     Zr1270   2.408       .  S
O1264      H1299   0.966       .  S
O1265     Zr1268   2.387       .  S
O1265     Zr1285   2.426   1_545  S
O1265      H1302   0.966       .  S
O1266     Zr1269   2.362       .  S
O1266     Zr1285   2.375   1_545  S
Zr1267     O1292   2.443       .  S
Zr1267     O1286   2.380   1_545  S
Zr1267     O1294   2.379       .  S
Zr1267     O1282   2.438   1_545  S
Zr1267     O1273   2.384       .  S
Zr1267     O1274   2.395       .  S
Zr1267     O1275   2.381   1_545  S
Zr1267     O1276   2.400   1_545  S
Zr1268     O1287   2.435   1_545  S
Zr1268     O1280   2.435       .  S
Zr1268     O1281   2.396       .  S
Zr1268     O1274   2.410       .  S
Zr1268     O1275   2.397   1_545  S
Zr1269     O1271   2.434       .  S
Zr1269     O1293   2.437       .  S
Zr1269     O1295   2.644       .  S
Zr1269     O1273   2.391       .  S
Zr1269     O1276   2.397   1_545  S
Zr1270     O1296   2.435       .  S
Zr1270     O1297   2.435       .  S
Zr1270     O1272   2.438       .  S
Zr1270     O1273   2.364       .  S
Zr1270     O1274   2.392       .  S
O1271      H1308   0.990       .  S
O1272      H1303   0.991       .  S
O1272      H1317   0.990       .  S
O1274      H1300   0.966       .  S
O1275     Zr1285   2.367       .  S
O1276     Zr1285   2.387       .  S
O1276      H1301   0.966       .  S
C1277      C4117   1.474       .  S
C1278      C4165   1.544       .  S
C1279      C4066   1.490       .  S
O1280      H1316   0.990       .  S
O1281      C1283   1.278   1_545  A
O1282      C1283   1.284       .  A
C1283      C4085   1.474       .  S
O1284     Zr1285   2.432       .  S
O1284      H1313   0.990       .  S
Zr1285     O1288   2.436       .  S
Zr1285     O1289   2.439       .  S
Zr1285     O1290   2.430       .  S
O1286      C1291   1.268       .  A
O1287      H1304   0.990       .  S
O1287      H1319   0.990   1_565  S
O1288      H1305   0.990       .  S
O1289      H1309   0.990       .  S
O1289      H1318   0.990       .  S
O1290      C1291   1.286       .  A
C1291      C4098   1.466       .  S
O1292      H1311   0.990       .  S
O1292      H1315   0.991       .  S
O1293      H1307   0.990       .  S
O1293      H1314   0.990       .  S
O1294      C1298   1.270       .  A
O1295      C1298   1.327       .  A
O1296      H1306   0.990       .  S
O1297      H1310   0.991       .  S
C1298      C4293   1.543       .  S
Zr1321     O1322   2.439       .  S
Zr1321     O1323   2.435       .  S
Zr1321     O1324   2.336       .  S
Zr1321     O1327   2.420       .  S
Zr1321     O1329   2.395       .  S
Zr1321     O1330   2.368       .  S
Zr1321     O1331   2.417       .  S
Zr1321     O1332   2.379       .  S
O1322      H1378   0.990       .  S
O1322      H1386   0.990       .  S
O1323      C1343   1.282       .  A
O1324      C1345   1.264       .  A
O1325     Zr1335   2.426       .  S
O1325      C1344   1.284       .  A
O1326     Zr1334   2.705       .  S
O1326      C1345   1.342       .  A
O1327      C1344   1.279       .  A
O1328     Zr1336   2.402       .  S
O1328      C1343   1.279       .  A
O1329     Zr1334   2.394       .  S
O1329     Zr1336   2.373       .  S
O1330     Zr1335   2.383       .  S
O1330     Zr1336   2.371       .  S
O1330      H1365   0.965       .  S
O1331     Zr1334   2.414       .  S
O1331     Zr1351   2.394       .  S
O1331      H1368   0.966   1_455  S
O1332     Zr1335   2.391       .  S
O1332     Zr1351   2.411       .  S
Zr1333     O1358   2.438       .  S
Zr1333     O1352   2.411       .  S
Zr1333     O1360   2.405       .  S
Zr1333     O1348   2.335       .  S
Zr1333     O1339   2.373       .  S
Zr1333     O1340   2.406       .  S
Zr1333     O1341   2.400       .  S
Zr1333     O1342   2.363       .  S
Zr1334     O1353   2.434   1_455  S
Zr1334     O1346   2.435       .  S
Zr1334     O1347   2.698       .  S
Zr1334     O1340   2.416       .  S
Zr1334     O1341   2.404       .  S
Zr1335     O1337   2.435       .  S
Zr1335     O1359   2.435       .  S
Zr1335     O1361   2.415       .  S
Zr1335     O1339   2.395       .  S
Zr1335     O1342   2.379       .  S
Zr1336     O1362   2.438       .  S
Zr1336     O1363   2.437       .  S
Zr1336     O1338   2.436       .  S
Zr1336     O1339   2.395       .  S
Zr1336     O1340   2.388       .  S
O1337      H1374   0.990       .  S
O1338      H1369   0.991       .  S
O1338      H1383   0.990       .  S
O1340      H1366   0.966       .  S
O1341     Zr1351   2.370       .  S
O1342     Zr1351   2.362       .  S
O1342      H1367   0.964       .  S
C1343      C4210   1.461       .  S
C1344      C4181   1.489       .  S
C1345      C4034   1.577   1_455  S
O1346      H1382   0.990       .  S
O1347      C1349   1.343       .  A
O1348      C1349   1.265       .  A
C1349      C4053   1.563       .  S
O1350     Zr1351   2.437   1_655  S
O1350      H1379   0.989       .  S
Zr1351     O1354   2.435   1_455  S
Zr1351     O1355   2.443       .  S
Zr1351     O1356   2.443   1_455  S
O1352      C1357   1.278       .  A
O1353      H1370   0.990       .  S
O1353      H1385   0.990       .  S
O1354      H1371   0.989       .  S
O1355      H1375   0.990   1_455  S
O1355      H1384   0.990       .  S
O1356      C1357   1.286   1_655  A
C1357      C4981   1.468       .  S
O1358      H1377   0.990       .  S
O1358      H1381   0.990       .  S
O1359      H1373   0.990       .  S
O1359      H1380   0.990       .  S
O1360      C1364   1.279       .  A
O1361      C1364   1.282       .  A
O1362      H1372   0.990       .  S
O1363      H1376   0.990       .  S
C1364      C5138   1.457       .  S
Zr1387     O1388   2.430       .  S
Zr1387     O1389   2.449       .  S
Zr1387     O1390   2.378       .  S
Zr1387     O1393   2.389       .  S
Zr1387     O1395   2.389       .  S
Zr1387     O1396   2.389       .  S
Zr1387     O1397   2.403   1_655  S
Zr1387     O1398   2.429       .  S
O1388      H1444   0.989       .  S
O1388      H1452   0.989       .  S
O1389      C1409   1.286       .  A
O1390      C1411   1.266   1_655  A
O1391     Zr1401   2.417       .  S
O1391      C1410   1.273       .  A
O1392     Zr1400   2.678       .  S
O1392      C1411   1.329       .  A
O1393      C1410   1.267       .  A
O1394     Zr1402   2.387       .  S
O1394      C1409   1.274       .  A
O1395     Zr1400   2.424   1_655  S
O1395     Zr1402   2.401       .  S
O1396     Zr1401   2.384       .  S
O1396     Zr1402   2.334       .  S
O1396      H1431   0.967       .  S
O1397     Zr1400   2.433       .  S
O1397     Zr1417   2.328       .  S
O1397      H1434   0.962       .  S
O1398     Zr1401   2.386       .  S
O1398     Zr1417   2.408   1_655  S
Zr1399     O1424   2.447       .  S
Zr1399     O1418   2.446       .  S
Zr1399     O1426   2.436   1_455  S
Zr1399     O1414   2.448       .  S
Zr1399     O1405   2.414   1_455  S
Zr1399     O1406   2.404   1_455  S
Zr1399     O1407   2.402       .  S
Zr1399     O1408   2.379       .  S
Zr1400     O1419   2.434       .  S
Zr1400     O1412   2.435       .  S
Zr1400     O1413   2.684       .  S
Zr1400     O1406   2.427   1_455  S
Zr1400     O1407   2.434       .  S
Zr1401     O1403   2.435       .  S
Zr1401     O1425   2.438       .  S
Zr1401     O1427   2.381       .  S
Zr1401     O1405   2.400       .  S
Zr1401     O1408   2.393   1_655  S
Zr1402     O1428   2.438       .  S
Zr1402     O1429   2.431       .  S
Zr1402     O1404   2.443       .  S
Zr1402     O1405   2.405       .  S
Zr1402     O1406   2.334       .  S
O1403      H1440   0.990       .  S
O1404      H1435   0.989       .  S
O1404      H1449   0.991       .  S
O1406      H1432   0.949       .  S
O1407     Zr1417   2.404       .  S
O1408     Zr1417   2.342       .  S
O1408      H1433   0.967       .  S
C1409      C5381   1.480       .  S
C1410      C5365   1.465       .  S
C1411      C4018   1.575       .  S
O1412      H1448   0.990       .  S
O1413      C1415   1.338       .  A
O1414      C1415   1.284       .  A
C1415      C4050   1.576       .  S
O1416     Zr1417   2.436       .  S
O1416      H1445   0.991       .  S
Zr1417     O1420   2.435       .  S
Zr1417     O1421   2.438       .  S
Zr1417     O1422   2.393       .  S
O1418      C1423   1.284       .  A
O1419      H1436   0.990       .  S
O1419      H1451   0.990       .  S
O1420      H1437   0.990       .  S
O1421      H1441   0.990       .  S
O1421      H1450   0.990       .  S
O1422      C1423   1.277       .  A
C1423      C5077   1.486       .  S
O1424      H1443   0.990       .  S
O1424      H1447   0.990       .  S
O1425      H1439   0.989       .  S
O1425      H1446   0.990       .  S
O1426      C1430   1.282       .  A
O1427      C1430   1.269       .  A
O1428      H1438   0.991       .  S
O1429      H1442   0.990       .  S
C1430      C5026   1.442       .  S
Zr1453     O1454   2.455   1_655  S
Zr1453     O1455   2.453       .  S
Zr1453     O1456   2.363   1_655  S
Zr1453     O1459   2.407       .  S
Zr1453     O1461   2.399       .  S
Zr1453     O1462   2.378       .  S
Zr1453     O1463   2.431   1_655  S
Zr1453     O1464   2.380       .  S
O1454      H1510   0.989       .  S
O1454      H1518   0.991       .  S
O1455      C1475   1.284       .  A
O1456      C1477   1.255       .  A
O1457     Zr1467   2.409       .  S
O1457      C1476   1.283       .  A
O1458     Zr1466   2.718   1_455  S
O1458      C1477   1.338       .  A
O1459      C1476   1.278       .  A
O1460     Zr1468   2.396       .  S
O1460      C1475   1.277       .  A
O1461     Zr1466   2.394       .  S
O1461     Zr1468   2.376       .  S
O1462     Zr1467   2.384       .  S
O1462     Zr1468   2.364       .  S
O1462      H1497   0.965       .  S
O1463     Zr1466   2.419   1_455  S
O1463     Zr1483   2.375       .  S
O1463      H1500   0.965       .  S
O1464     Zr1467   2.389       .  S
O1464     Zr1483   2.396   1_655  S
Zr1465     O1490   2.441       .  S
Zr1465     O1484   2.414       .  S
Zr1465     O1492   2.413       .  S
Zr1465     O1480   2.329       .  S
Zr1465     O1471   2.367       .  S
Zr1465     O1472   2.410       .  S
Zr1465     O1473   2.398       .  S
Zr1465     O1474   2.362       .  S
Zr1466     O1485   2.434   1_655  S
Zr1466     O1478   2.435       .  S
Zr1466     O1479   2.696       .  S
Zr1466     O1472   2.418       .  S
Zr1466     O1473   2.415       .  S
Zr1467     O1469   2.434       .  S
Zr1467     O1491   2.437       .  S
Zr1467     O1493   2.430       .  S
Zr1467     O1471   2.387       .  S
Zr1467     O1474   2.374       .  S
Zr1468     O1494   2.436       .  S
Zr1468     O1495   2.435       .  S
Zr1468     O1470   2.438       .  S
Zr1468     O1471   2.392       .  S
Zr1468     O1472   2.384       .  S
O1469      H1506   0.990       .  S
O1470      H1501   0.991       .  S
O1470      H1515   0.990       .  S
O1472      H1498   0.966       .  S
O1473     Zr1483   2.377   1_655  S
O1474     Zr1483   2.365   1_655  S
O1474      H1499   0.964       .  S
C1475      C5317   1.464       .  S
C1476      C5461   1.473       .  S
C1477      C4021   1.589       .  S
O1478      H1514   0.990       .  S
O1479      C1481   1.342       .  A
O1480      C1481   1.264       .  A
C1481      C3986   1.560       .  S
O1482     Zr1483   2.436       .  S
O1482      H1511   0.989       .  S
Zr1483     O1486   2.436       .  S
Zr1483     O1487   2.442       .  S
Zr1483     O1488   2.408       .  S
O1484      C1489   1.279   1_655  A
O1485      H1502   0.990       .  S
O1485      H1517   0.990       .  S
O1486      H1503   0.990       .  S
O1487      H1507   0.990       .  S
O1487      H1516   0.990       .  S
O1488      C1489   1.280       .  A
C1489      C4002   1.458       .  S
O1490      H1509   0.990       .  S
O1490      H1513   0.990       .  S
O1491      H1505   0.990       .  S
O1491      H1512   0.990       .  S
O1492      C1496   1.280       .  A
O1493      C1496   1.284       .  A
O1494      H1504   0.990       .  S
O1495      H1508   0.989       .  S
C1496      C3970   1.469       .  S
Zr1519     O1520   2.430       .  S
Zr1519     O1521   2.454       .  S
Zr1519     O1522   2.443       .  S
Zr1519     O1525   2.429       .  S
Zr1519     O1527   2.389       .  S
Zr1519     O1528   2.402       .  S
Zr1519     O1529   2.409       .  S
Zr1519     O1530   2.429       .  S
O1520      H1576   0.989       .  S
O1520      H1584   0.991       .  S
O1521      C1541   1.289       .  A
O1522      C1543   1.287       .  A
O1523     Zr1533   2.394       .  S
O1523      C1542   1.267       .  A
O1524     Zr1532   2.676       .  S
O1524      C1543   1.337   1_655  A
O1525      C1542   1.273       .  A
O1526     Zr1534   2.404       .  S
O1526      C1541   1.275       .  A
O1527     Zr1532   2.431   1_455  S
O1527     Zr1534   2.412       .  S
O1528     Zr1533   2.399       .  S
O1528     Zr1534   2.334       .  S
O1528      H1563   0.966       .  S
O1529     Zr1532   2.413   1_455  S
O1529     Zr1549   2.340       .  S
O1529      H1566   0.953       .  S
O1530     Zr1533   2.401       .  S
O1530     Zr1549   2.409       .  S
Zr1531     O1556   2.434       .  S
Zr1531     O1550   2.449   1_455  S
Zr1531     O1558   2.428       .  S
Zr1531     O1546   2.416   1_455  S
Zr1531     O1537   2.438       .  S
Zr1531     O1538   2.407       .  S
Zr1531     O1539   2.393   1_455  S
Zr1531     O1540   2.402       .  S
Zr1532     O1551   2.435       .  S
Zr1532     O1544   2.434       .  S
Zr1532     O1545   2.665       .  S
Zr1532     O1538   2.425   1_655  S
Zr1532     O1539   2.432       .  S
Zr1533     O1535   2.436       .  S
Zr1533     O1557   2.438       .  S
Zr1533     O1559   2.401       .  S
Zr1533     O1537   2.394       .  S
Zr1533     O1540   2.395       .  S
Zr1534     O1560   2.436       .  S
Zr1534     O1561   2.434       .  S
Zr1534     O1536   2.438       .  S
Zr1534     O1537   2.412       .  S
Zr1534     O1538   2.338       .  S
O1535      H1572   0.990       .  S
O1536      H1567   0.991       .  S
O1536      H1581   0.989       .  S
O1538      H1564   0.956       .  S
O1539     Zr1549   2.412   1_655  S
O1540     Zr1549   2.328       .  S
O1540      H1565   0.963       .  S
C1541      C4149   1.495       .  S
C1542      C4245   1.481       .  S
C1543      C4037   1.571   1_455  S
O1544      H1580   0.990       .  S
O1545      C1547   1.333       .  A
O1546      C1547   1.277       .  A
C1547      C3989   1.563       .  S
O1548     Zr1549   2.436       .  S
O1548      H1577   0.990       .  S
Zr1549     O1552   2.435   1_455  S
Zr1549     O1553   2.443       .  S
Zr1549     O1554   2.399   1_455  S
O1550      C1555   1.285       .  A
O1551      H1568   0.990       .  S
O1551      H1583   0.990       .  S
O1552      H1569   0.990       .  S
O1553      H1573   0.990       .  S
O1553      H1582   0.991       .  S
O1554      C1555   1.277       .  A
C1555      C3954   1.492       .  S
O1556      H1575   0.991       .  S
O1556      H1579   0.989       .  S
O1557      H1571   0.989       .  S
O1557      H1578   0.988       .  S
O1558      C1562   1.267       .  A
O1559      C1562   1.266       .  A
O1560      H1570   0.990       .  S
O1561      H1574   0.990       .  S
C1562      C3941   1.480       .  S
Zr1585     O1586   2.433       .  S
Zr1585     O1587   2.466       .  S
Zr1585     O1588   2.432       .  S
Zr1585     O1591   2.410       .  S
Zr1585     O1593   2.384       .  S
Zr1585     O1594   2.391       .  S
Zr1585     O1595   2.384       .  S
Zr1585     O1596   2.446       .  S
O1586      H1642   0.986       .  S
O1586      H1650   0.989       .  S
O1587      C1607   1.287       .  A
O1588      C1609   1.278       .  A
O1589     Zr1599   2.389       .  S
O1589      C1608   1.266       .  A
O1590     Zr1598   2.688       .  S
O1590      C1609   1.338       .  A
O1591      C1608   1.267       .  A
O1592     Zr1600   2.373       .  S
O1592      C1607   1.271       .  A
O1593     Zr1598   2.436       .  S
O1593     Zr1600   2.428       .  S
O1594     Zr1599   2.390       .  S
O1594     Zr1600   2.345       .  S
O1594      H1629   0.966       .  S
O1595     Zr1598   2.403       .  S
O1595     Zr1615   2.322       .  S
O1595      H1632   0.961       .  S
O1596     Zr1599   2.407       .  S
O1596     Zr1615   2.424       .  S
Zr1597     O1622   2.438       .  S
Zr1597     O1616   2.428       .  S
Zr1597     O1624   2.479       .  S
Zr1597     O1612   2.425       .  S
Zr1597     O1603   2.422       .  S
Zr1597     O1604   2.415       .  S
Zr1597     O1605   2.393       .  S
Zr1597     O1606   2.372       .  S
Zr1598     O1617   2.434       .  S
Zr1598     O1610   2.434       .  S
Zr1598     O1611   2.694       .  S
Zr1598     O1604   2.397       .  S
Zr1598     O1605   2.435       .  S
Zr1599     O1601   2.436       .  S
Zr1599     O1623   2.441       .  S
Zr1599     O1625   2.365       .  S
Zr1599     O1603   2.387       .  S
Zr1599     O1606   2.411       .  S
Zr1600     O1626   2.441       .  S
Zr1600     O1627   2.435       .  S
Zr1600     O1602   2.442       .  S
Zr1600     O1603   2.416       .  S
Zr1600     O1604   2.323       .  S
O1601      H1638   0.990       .  S
O1602      H1633   0.990       .  S
O1602      H1647   0.989       .  S
O1604      H1630   0.942       .  S
O1605     Zr1615   2.399       .  S
O1606     Zr1615   2.319       .  S
O1606      H1631   0.962       .  S
C1607      C4901   1.491       .  S
C1608      C4866   1.459       .  S
C1609      C3922   1.572       .  S
O1610      H1646   0.990       .  S
O1611      C1613   1.342       .  A
O1612      C1613   1.284       .  A
C1613      C3906   1.558       .  S
O1614     Zr1615   2.439       .  S
O1614      H1643   0.991       .  S
Zr1615     O1618   2.443       .  S
Zr1615     O1619   2.442       .  S
Zr1615     O1620   2.417       .  S
O1616      C1621   1.276       .  A
O1617      H1634   0.989       .  S
O1617      H1649   0.990       .  S
O1618      H1635   0.990       .  S
O1619      H1639   0.990       .  S
O1619      H1648   0.990       .  S
O1620      C1621   1.275       .  A
C1621      C4258   1.488       .  S
O1622      H1641   0.990       .  S
O1622      H1645   0.987       .  S
O1623      H1637   0.990       .  S
O1623      H1644   0.989       .  S
O1624      C1628   1.292       .  A
O1625      C1628   1.273       .  A
O1626      H1636   0.990       .  S
O1627      H1640   0.990       .  S
C1628      C4101   1.481       .  S
Zr1651     O1652   2.444       .  S
Zr1651     O1653   2.439       .  S
Zr1651     O1654   2.350       .  S
Zr1651     O1657   2.396       .  S
Zr1651     O1659   2.403       .  S
Zr1651     O1660   2.375       .  S
Zr1651     O1661   2.418       .  S
Zr1651     O1662   2.379       .  S
O1652      H1708   0.990       .  S
O1652      H1716   0.991       .  S
O1653      C1673   1.283       .  A
O1654      C1675   1.258       .  A
O1655     Zr1665   2.408       .  S
O1655      C1674   1.280       .  A
O1656     Zr1664   2.683       .  S
O1656      C1675   1.334       .  A
O1657      C1674   1.276       .  A
O1658     Zr1666   2.391       .  S
O1658      C1673   1.277       .  A
O1659     Zr1664   2.401       .  S
O1659     Zr1666   2.374       .  S
O1660     Zr1665   2.380       .  S
O1660     Zr1666   2.371       .  S
O1660      H1695   0.965       .  S
O1661     Zr1664   2.411       .  S
O1661     Zr1681   2.374       .  S
O1661      H1698   0.966       .  S
O1662     Zr1665   2.392       .  S
O1662     Zr1681   2.391       .  S
Zr1663     O1688   2.440       .  S
Zr1663     O1682   2.423       .  S
Zr1663     O1690   2.401       .  S
Zr1663     O1678   2.330       .  S
Zr1663     O1669   2.370       .  S
Zr1663     O1670   2.404       .  S
Zr1663     O1671   2.388       .  S
Zr1663     O1672   2.367       .  S
Zr1664     O1683   2.433       .  S
Zr1664     O1676   2.434       .  S
Zr1664     O1677   2.683       .  S
Zr1664     O1670   2.408       .  S
Zr1664     O1671   2.400       .  S
Zr1665     O1667   2.434       .  S
Zr1665     O1689   2.439       .  S
Zr1665     O1691   2.421       .  S
Zr1665     O1669   2.387       .  S
Zr1665     O1672   2.383       .  S
Zr1666     O1692   2.438       .  S
Zr1666     O1693   2.436       .  S
Zr1666     O1668   2.437       .  S
Zr1666     O1669   2.394       .  S
Zr1666     O1670   2.379       .  S
O1667      H1704   0.990       .  S
O1668      H1699   0.990       .  S
O1668      H1713   0.990       .  S
O1670      H1696   0.966       .  S
O1671     Zr1681   2.376       .  S
O1672     Zr1681   2.371       .  S
O1672      H1697   0.966       .  S
C1673      C4853   1.457       .  S
C1674      C4949   1.443       .  S
C1675      C3925   1.563       .  S
O1676      H1712   0.990       .  S
O1677      C1679   1.338       .  A
O1678      C1679   1.266       .  A
C1679      C3890   1.562       .  S
O1680     Zr1681   2.440       .  S
O1680      H1709   0.990       .  S
Zr1681     O1684   2.435       .  S
Zr1681     O1685   2.438       .  S
Zr1681     O1686   2.403       .  S
O1682      C1687   1.280       .  A
O1683      H1700   0.990       .  S
O1683      H1715   0.990       .  S
O1684      H1701   0.990       .  S
O1685      H1705   0.990       .  S
O1685      H1714   0.990       .  S
O1686      C1687   1.279       .  A
C1687      C5221   1.458       .  S
O1688      H1707   0.990       .  S
O1688      H1711   0.991       .  S
O1689      H1703   0.990       .  S
O1689      H1710   0.990       .  S
O1690      C1694   1.279       .  A
O1691      C1694   1.282       .  A
O1692      H1702   0.990       .  S
O1693      H1706   0.990       .  S
C1694      C5202   1.473       .  S
Zr1717     O1718   2.446       .  S
Zr1717     O1719   2.468       .  S
Zr1717     O1720   2.425       .  S
Zr1717     O1723   2.417       .  S
Zr1717     O1725   2.390       .  S
Zr1717     O1726   2.393       .  S
Zr1717     O1727   2.410       .  S
Zr1717     O1728   2.434       .  S
O1718      H1774   0.988       .  S
O1718      H1782   0.992       .  S
O1719      C1739   1.288       .  A
O1720      C1741   1.282       .  A
O1721     Zr1731   2.389       .  S
O1721      C1740   1.269       .  A
O1722     Zr1730   2.673       .  S
O1722      C1741   1.336       .  A
O1723      C1740   1.268       .  A
O1724     Zr1732   2.377       .  S
O1724      C1739   1.270       .  A
O1725     Zr1730   2.440       .  S
O1725     Zr1732   2.421       .  S
O1726     Zr1731   2.395       .  S
O1726     Zr1732   2.356       .  S
O1726      H1761   0.966       .  S
O1727     Zr1730   2.392       .  S
O1727     Zr1747   2.337       .  S
O1727      H1764   0.960       .  S
O1728     Zr1731   2.403       .  S
O1728     Zr1747   2.406       .  S
Zr1729     O1754   2.431       .  S
Zr1729     O1748   2.443       .  S
Zr1729     O1756   2.410       .  S
Zr1729     O1744   2.415       .  S
Zr1729     O1735   2.429       .  S
Zr1729     O1736   2.395       .  S
Zr1729     O1737   2.384       .  S
Zr1729     O1738   2.405       .  S
Zr1730     O1749   2.434       .  S
Zr1730     O1742   2.435       .  S
Zr1730     O1743   2.654       .  S
Zr1730     O1736   2.421       .  S
Zr1730     O1737   2.429       .  S
Zr1731     O1733   2.434       .  S
Zr1731     O1755   2.440       .  S
Zr1731     O1757   2.409       .  S
Zr1731     O1735   2.394       .  S
Zr1731     O1738   2.404       .  S
Zr1732     O1758   2.437       .  S
Zr1732     O1759   2.435       .  S
Zr1732     O1734   2.438       .  S
Zr1732     O1735   2.394       .  S
Zr1732     O1736   2.333       .  S
O1733      H1770   0.990       .  S
O1734      H1765   0.990       .  S
O1734      H1779   0.990       .  S
O1736      H1762   0.947       .  S
O1737     Zr1747   2.410       .  S
O1738     Zr1747   2.349       .  S
O1738      H1763   0.965       .  S
C1739      C3874   1.476       .  S
C1740      C3842   1.479       .  S
C1741      C3858   1.554       .  S
O1742      H1778   0.990       .  S
O1743      C1745   1.332       .  A
O1744      C1745   1.278       .  A
C1745      C3893   1.554       .  S
O1746     Zr1747   2.438       .  S
O1746      H1775   0.991       .  S
Zr1747     O1750   2.437       .  S
Zr1747     O1751   2.438       .  S
Zr1747     O1752   2.410       .  S
O1748      C1753   1.285       .  A
O1749      H1766   0.989       .  S
O1749      H1781   0.991       .  S
O1750      H1767   0.990       .  S
O1751      H1771   0.990       .  S
O1751      H1780   0.990       .  S
O1752      C1753   1.278       .  A
C1753      C5170   1.492       .  S
O1754      H1773   0.990       .  S
O1754      H1777   0.989       .  S
O1755      H1769   0.989       .  S
O1755      H1776   0.990       .  S
O1756      C1760   1.268       .  A
O1757      C1760   1.267       .  A
O1758      H1768   0.990       .  S
O1759      H1772   0.991       .  S
C1760      C5282   1.470       .  S
Zr1783     O1784   2.438       .  S
Zr1783     O1785   2.424       .  S
Zr1783     O1786   2.368       .  S
Zr1783     O1789   2.424       .  S
Zr1783     O1791   2.400       .  S
Zr1783     O1792   2.379       .  S
Zr1783     O1793   2.419       .  S
Zr1783     O1794   2.382       .  S
O1784      H1840   0.990       .  S
O1784      H1848   0.990       .  S
O1785      C1805   1.281       .  A
O1786      C1807   1.263       .  A
O1787     Zr1797   2.428       .  S
O1787      C1806   1.286       .  A
O1788     Zr1796   2.673       .  S
O1788      C1807   1.330       .  A
O1789      C1806   1.281       .  A
O1790     Zr1798   2.409       .  S
O1790      C1805   1.280       .  A
O1791     Zr1796   2.407       .  S
O1791     Zr1798   2.367       .  S
O1792     Zr1797   2.370       .  S
O1792     Zr1798   2.364       .  S
O1792      H1827   0.964       .  S
O1793     Zr1796   2.420       .  S
O1793     Zr1813   2.385       .  S
O1793      H1830   0.966       .  S
O1794     Zr1797   2.397       .  S
O1794     Zr1813   2.392       .  S
Zr1795     O1820   2.449       .  S
Zr1795     O1814   2.462       .  S
Zr1795     O1822   2.395       .  S
Zr1795     O1810   2.363       .  S
Zr1795     O1801   2.385       .  S
Zr1795     O1802   2.421       .  S
Zr1795     O1803   2.401       .  S
Zr1795     O1804   2.381       .  S
Zr1796     O1815   2.434       .  S
Zr1796     O1808   2.435       .  S
Zr1796     O1809   2.690       .  S
Zr1796     O1802   2.410       .  S
Zr1796     O1803   2.400       .  S
Zr1797     O1799   2.435       .  S
Zr1797     O1821   2.436       .  S
Zr1797     O1823   2.435       .  S
Zr1797     O1801   2.392       .  S
Zr1797     O1804   2.372       .  S
Zr1798     O1824   2.434       .  S
Zr1798     O1825   2.438       .  S
Zr1798     O1800   2.438       .  S
Zr1798     O1801   2.397       .  S
Zr1798     O1802   2.385       .  S
O1799      H1836   0.990       .  S
O1800      H1831   0.990       .  S
O1800      H1845   0.990       .  S
O1802      H1828   0.966       .  S
O1803     Zr1813   2.375       .  S
O1804     Zr1813   2.374       .  S
O1804      H1829   0.966       .  S
C1805      C4082   1.457       .  S
C1806      C4309   1.488       .  S
C1807      C3909   1.576       .  S
O1808      H1844   0.990       .  S
O1809      C1811   1.328       .  A
O1810      C1811   1.254       .  A
C1811      C3861   1.580       .  S
O1812     Zr1813   2.434       .  S
O1812      H1841   0.989       .  S
Zr1813     O1816   2.435       .  S
Zr1813     O1817   2.439       .  S
Zr1813     O1818   2.394       .  S
O1814      C1819   1.288       .  A
O1815      H1832   0.990       .  S
O1815      H1847   0.990       .  S
O1816      H1833   0.989       .  S
O1817      H1837   0.990       .  S
O1817      H1846   0.989       .  S
O1818      C1819   1.277       .  A
C1819      C3829   1.471       .  S
O1820      H1839   0.990       .  S
O1820      H1843   0.990       .  S
O1821      H1835   0.990       .  S
O1821      H1842   0.991       .  S
O1822      C1826   1.277       .  A
O1823      C1826   1.286       .  A
O1824      H1834   0.990       .  S
O1825      H1838   0.990       .  S
C1826      C3813   1.473       .  S
Zr1849     O1850   2.445       .  S
Zr1849     O1851   2.437       .  S
Zr1849     O1852   2.421       .  S
Zr1849     O1855   2.442       .  S
Zr1849     O1857   2.404       .  S
Zr1849     O1858   2.417       .  S
Zr1849     O1859   2.435       .  S
Zr1849     O1860   2.379       .  S
O1850      H1906   0.989       .  S
O1850      H1914   0.989       .  S
O1851      C1871   1.277       .  A
O1852      C1873   1.275       .  A
O1853     Zr1863   2.644       .  S
O1853      C1872   1.328       .  A
O1854     Zr1862   2.409       .  S
O1854      C1873   1.276       .  A
O1855      C1872   1.284   1_556  A
O1856     Zr1864   2.426       .  S
O1856      C1871   1.270       .  A
O1857     Zr1862   2.375       .  S
O1857     Zr1864   2.389       .  S
O1858     Zr1863   2.411   1_556  S
O1858     Zr1864   2.417       .  S
O1858      H1893   0.965       .  S
O1859     Zr1862   2.404       .  S
O1859     Zr1879   2.393       .  S
O1859      H1896   0.964       .  S
O1860     Zr1863   2.360   1_556  S
O1860     Zr1879   2.356       .  S
Zr1861     O1886   2.452       .  S
Zr1861     O1880   2.453       .  S
Zr1861     O1888   2.413       .  S
Zr1861     O1876   2.435       .  S
Zr1861     O1868   2.419       .  S
Zr1861     O1869   2.362       .  S
Zr1861     O1870   2.403       .  S
Zr1861     O1867   2.300       .  S
Zr1862     O1881   2.437       .  S
Zr1862     O1874   2.435       .  S
Zr1862     O1875   2.432       .  S
Zr1862     O1868   2.394       .  S
Zr1862     O1869   2.366       .  S
Zr1863     O1865   2.443       .  S
Zr1863     O1887   2.442       .  S
Zr1863     O1889   2.623       .  S
Zr1863     O1870   2.430   1_554  S
Zr1863     O1867   2.275   1_554  S
Zr1864     O1890   2.436       .  S
Zr1864     O1891   2.430       .  S
Zr1864     O1866   2.454       .  S
Zr1864     O1868   2.432       .  S
Zr1864     O1867   2.294       .  S
O1865      H1902   0.991       .  S
O1866      H1897   0.991       .  S
O1866      H1911   0.989       .  S
O1868      H1894   0.966       .  S
O1869     Zr1879   2.366       .  S
O1870     Zr1879   2.407       .  S
O1870      H1895   0.966   1_556  S
C1871      C3938   1.486       .  S
C1872      C3762   1.548       .  S
C1873      C4005   1.482       .  S
O1874      H1910   0.990       .  S
O1875      C1877   1.284       .  A
O1876      C1877   1.284       .  A
C1877      C3746   1.486       .  S
O1878     Zr1879   2.430       .  S
O1878      H1907   0.990       .  S
Zr1879     O1882   2.436       .  S
Zr1879     O1883   2.437   1_556  S
Zr1879     O1884   2.385       .  S
O1880      C1885   1.286       .  A
O1881      H1898   0.989       .  S
O1881      H1913   0.990       .  S
O1882      H1899   0.990       .  S
O1883      H1903   0.990       .  S
O1883      H1912   0.990       .  S
O1884      C1885   1.271       .  A
C1885      C3794   1.474       .  S
O1886      H1905   0.990   1_556  S
O1886      H1909   0.991       .  S
O1887      H1901   0.990       .  S
O1887      H1908   0.990       .  S
O1888      C1892   1.282   1_556  A
O1889      C1892   1.323       .  A
O1890      H1900   0.991       .  S
O1891      H1904   0.990       .  S
C1892      C3778   1.546       .  S
Zr1915     O1916   2.448       .  S
Zr1915     O1917   2.415       .  S
Zr1915     O1918   2.420       .  S
Zr1915     O1921   2.405       .  S
Zr1915     O1923   2.368       .  S
Zr1915     O1924   2.404       .  S
Zr1915     O1925   2.415       .  S
Zr1915     O1926   2.373   1_556  S
O1916      H1972   0.990       .  S
O1916      H1980   0.990       .  S
O1917      C1937   1.279       .  A
O1918      C1939   1.277       .  A
O1919     Zr1929   2.644       .  S
O1919      C1938   1.329       .  A
O1920     Zr1928   2.454       .  S
O1920      C1939   1.285       .  A
O1921      C1938   1.278   1_556  A
O1922     Zr1930   2.430       .  S
O1922      C1937   1.281       .  A
O1923     Zr1928   2.408       .  S
O1923     Zr1930   2.353       .  S
O1924     Zr1929   2.404   1_556  S
O1924     Zr1930   2.408       .  S
O1924      H1959   0.964       .  S
O1925     Zr1928   2.413       .  S
O1925     Zr1945   2.418   1_556  S
O1925      H1962   0.967       .  S
O1926     Zr1929   2.378       .  S
O1926     Zr1945   2.357       .  S
Zr1927     O1952   2.451       .  S
Zr1927     O1946   2.431       .  S
Zr1927     O1954   2.361       .  S
Zr1927     O1942   2.395   1_554  S
Zr1927     O1933   2.376   1_554  S
Zr1927     O1934   2.417   1_554  S
Zr1927     O1935   2.367       .  S
Zr1927     O1936   2.392       .  S
Zr1928     O1947   2.437       .  S
Zr1928     O1940   2.435       .  S
Zr1928     O1941   2.478       .  S
Zr1928     O1934   2.411       .  S
Zr1928     O1935   2.394   1_556  S
Zr1929     O1931   2.436       .  S
Zr1929     O1953   2.433       .  S
Zr1929     O1955   2.662       .  S
Zr1929     O1933   2.363   1_554  S
Zr1929     O1936   2.399       .  S
Zr1930     O1956   2.435       .  S
Zr1930     O1957   2.439       .  S
Zr1930     O1932   2.438       .  S
Zr1930     O1933   2.367       .  S
Zr1930     O1934   2.429       .  S
O1931      H1968   0.990       .  S
O1932      H1963   0.990       .  S
O1932      H1977   0.990       .  S
O1934      H1960   0.967       .  S
O1935     Zr1945   2.358       .  S
O1936     Zr1945   2.405       .  S
O1936      H1961   0.965       .  S
C1937      C3973   1.475       .  S
C1938      C3765   1.543       .  S
C1939      C3957   1.482       .  S
O1940      H1976   0.991       .  S
O1941      C1943   1.286       .  A
O1942      C1943   1.268       .  A
C1943      C4802   1.487   1_556  S
O1944     Zr1945   2.437       .  S
O1944      H1973   0.990       .  S
Zr1945     O1948   2.436       .  S
Zr1945     O1949   2.438       .  S
Zr1945     O1950   2.401       .  S
O1946      C1951   1.282       .  A
O1947      H1964   0.990       .  S
O1947      H1979   0.990       .  S
O1948      H1965   0.990       .  S
O1949      H1969   0.990       .  S
O1949      H1978   0.990       .  S
O1950      C1951   1.278       .  A
C1951      C4597   1.469       .  S
O1952      H1971   0.990       .  S
O1952      H1975   0.989       .  S
O1953      H1967   0.989   1_554  S
O1953      H1974   0.991       .  S
O1954      C1958   1.268       .  A
O1955      C1958   1.333       .  A
O1956      H1966   0.990       .  S
O1957      H1970   0.989       .  S
C1958      C3730   1.539       .  S
Zr1981     O1982   2.443       .  S
Zr1981     O1983   2.448       .  S
Zr1981     O1984   2.412       .  S
Zr1981     O1987   2.421       .  S
Zr1981     O1989   2.366       .  S
Zr1981     O1990   2.400       .  S
Zr1981     O1991   2.423       .  S
Zr1981     O1992   2.383       .  S
O1982      H2038   0.989       .  S
O1982      H2046   0.991       .  S
O1983      C2003   1.285       .  A
O1984      C2005   1.274       .  A
O1985     Zr1995   2.647   1_556  S
O1985      C2004   1.328   1_556  A
O1986     Zr1994   2.457       .  S
O1986      C2005   1.283       .  A
O1987      C2004   1.277       .  A
O1988     Zr1996   2.383       .  S
O1988      C2003   1.273       .  A
O1989     Zr1994   2.388       .  S
O1989     Zr1996   2.353       .  S
O1990     Zr1995   2.426       .  S
O1990     Zr1996   2.412       .  S
O1990      H2025   0.967       .  S
O1991     Zr1994   2.407       .  S
O1991     Zr2011   2.431       .  S
O1991      H2028   0.966       .  S
O1992     Zr1995   2.350       .  S
O1992     Zr2011   2.357       .  S
Zr1993     O2018   2.444       .  S
Zr1993     O2012   2.436       .  S
Zr1993     O2020   2.415       .  S
Zr1993     O2008   2.432       .  S
Zr1993     O1999   2.380       .  S
Zr1993     O2000   2.414       .  S
Zr1993     O2001   2.385       .  S
Zr1993     O2002   2.398       .  S
Zr1994     O2013   2.435       .  S
Zr1994     O2006   2.437       .  S
Zr1994     O2007   2.431       .  S
Zr1994     O2000   2.413       .  S
Zr1994     O2001   2.393       .  S
Zr1995     O1997   2.437   1_554  S
Zr1995     O2019   2.435   1_554  S
Zr1995     O2021   2.630   1_554  S
Zr1995     O1999   2.368       .  S
Zr1995     O2002   2.411       .  S
Zr1996     O2022   2.437       .  S
Zr1996     O2023   2.434       .  S
Zr1996     O1998   2.444       .  S
Zr1996     O1999   2.367       .  S
Zr1996     O2000   2.384       .  S
O1997      H2034   0.990       .  S
O1998      H2029   0.989       .  S
O1998      H2043   0.991       .  S
O2000      H2026   0.964       .  S
O2001     Zr2011   2.387       .  S
O2002     Zr2011   2.411       .  S
O2002      H2027   0.966       .  S
C2003      C4757   1.479       .  S
C2004      C3733   1.550       .  S
C2005      C4613   1.495       .  S
O2006      H2042   0.991       .  S
O2007      C2009   1.286       .  A
O2008      C2009   1.281       .  A
C2009      C3826   1.482       .  S
O2010     Zr2011   2.435       .  S
O2010      H2039   0.989       .  S
Zr2011     O2014   2.435       .  S
Zr2011     O2015   2.444       .  S
Zr2011     O2016   2.380       .  S
O2012      C2017   1.276       .  A
O2013      H2030   0.990       .  S
O2013      H2045   0.991       .  S
O2014      H2031   0.991       .  S
O2015      H2035   0.990       .  S
O2015      H2044   0.990       .  S
O2016      C2017   1.272       .  A
C2017      C3845   1.474       .  S
O2018      H2037   0.988       .  S
O2018      H2041   0.991       .  S
O2019      H2033   0.990       .  S
O2019      H2040   0.990       .  S
O2020      C2024   1.280       .  A
O2021      C2024   1.325   1_556  A
O2022      H2032   0.991       .  S
O2023      H2036   0.990       .  S
C2024      C3714   1.537   1_554  S
Zr2047     O2048   2.451       .  S
Zr2047     O2049   2.405       .  S
Zr2047     O2050   2.389       .  S
Zr2047     O2053   2.439       .  S
Zr2047     O2055   2.376       .  S
Zr2047     O2056   2.384       .  S
Zr2047     O2057   2.432   1_556  S
Zr2047     O2058   2.345   1_556  S
O2048      H2104   0.988       .  S
O2048      H2112   0.992       .  S
O2049      C2069   1.276       .  A
O2050      C2071   1.276       .  A
O2051     Zr2061   2.636       .  S
O2051      C2070   1.323   1_554  A
O2052     Zr2060   2.456   1_556  S
O2052      C2071   1.287       .  A
O2053      C2070   1.277       .  A
O2054     Zr2062   2.402       .  S
O2054      C2069   1.275       .  A
O2055     Zr2060   2.399   1_556  S
O2055     Zr2062   2.370       .  S
O2056     Zr2061   2.417   1_556  S
O2056     Zr2062   2.412       .  S
O2056      H2091   0.965       .  S
O2057     Zr2060   2.402       .  S
O2057     Zr2077   2.417       .  S
O2057      H2094   0.967       .  S
O2058     Zr2061   2.333       .  S
O2058     Zr2077   2.351       .  S
Zr2059     O2084   2.445       .  S
Zr2059     O2078   2.454       .  S
Zr2059     O2086   2.431       .  S
Zr2059     O2074   2.419       .  S
Zr2059     O2065   2.373   1_554  S
Zr2059     O2066   2.424       .  S
Zr2059     O2067   2.377       .  S
Zr2059     O2068   2.395       .  S
Zr2060     O2079   2.436       .  S
Zr2060     O2072   2.435       .  S
Zr2060     O2073   2.445       .  S
Zr2060     O2066   2.405       .  S
Zr2060     O2067   2.398       .  S
Zr2061     O2063   2.434       .  S
Zr2061     O2085   2.437   1_554  S
Zr2061     O2087   2.607   1_554  S
Zr2061     O2065   2.373   1_554  S
Zr2061     O2068   2.393       .  S
Zr2062     O2088   2.435       .  S
Zr2062     O2089   2.435       .  S
Zr2062     O2064   2.438       .  S
Zr2062     O2065   2.366       .  S
Zr2062     O2066   2.409   1_556  S
O2063      H2100   0.990       .  S
O2064      H2095   0.990       .  S
O2064      H2109   0.990       .  S
O2066      H2092   0.966       .  S
O2067     Zr2077   2.348       .  S
O2068     Zr2077   2.421       .  S
O2068      H2093   0.964       .  S
C2069      C3701   1.461       .  S
C2070      C3781   1.550   1_556  S
C2071      C3685   1.486       .  S
O2072      H2108   0.990   1_554  S
O2073      C2075   1.284       .  A
O2074      C2075   1.276       .  A
C2075      C3877   1.466       .  S
O2076     Zr2077   2.436       .  S
O2076      H2105   0.989       .  S
Zr2077     O2080   2.435       .  S
Zr2077     O2081   2.437       .  S
Zr2077     O2082   2.386       .  S
O2078      C2083   1.288       .  A
O2079      H2096   0.989       .  S
O2079      H2111   0.990       .  S
O2080      H2097   0.989       .  S
O2081      H2101   0.990       .  S
O2081      H2110   0.990       .  S
O2082      C2083   1.274       .  A
C2083      C3810   1.463       .  S
O2084      H2103   0.991       .  S
O2084      H2107   0.991       .  S
O2085      H2099   0.990       .  S
O2085      H2106   0.991       .  S
O2086      C2090   1.283       .  A
O2087      C2090   1.320   1_556  A
O2088      H2098   0.990       .  S
O2089      H2102   0.990       .  S
C2090      C3717   1.531       .  S
Zr2113     O2114   2.443       .  S
Zr2113     O2115   2.413       .  S
Zr2113     O2116   2.387       .  S
Zr2113     O2119   2.420       .  S
Zr2113     O2121   2.380       .  S
Zr2113     O2122   2.385       .  S
Zr2113     O2123   2.415       .  S
Zr2113     O2124   2.360       .  S
O2114      H2170   0.990       .  S
O2114      H2178   0.991       .  S
O2115      C2135   1.274       .  A
O2116      C2137   1.275       .  A
O2117     Zr2127   2.645       .  S
O2117      C2136   1.326       .  A
O2118     Zr2126   2.453       .  S
O2118      C2137   1.287       .  A
O2119      C2136   1.277       .  A
O2120     Zr2128   2.446       .  S
O2120      C2135   1.283       .  A
O2121     Zr2126   2.402       .  S
O2121     Zr2128   2.364       .  S
O2122     Zr2127   2.408       .  S
O2122     Zr2128   2.398       .  S
O2122      H2157   0.965       .  S
O2123     Zr2126   2.415       .  S
O2123     Zr2143   2.393       .  S
O2123      H2160   0.966       .  S
O2124     Zr2127   2.360       .  S
O2124     Zr2143   2.352       .  S
Zr2125     O2150   2.455       .  S
Zr2125     O2144   2.477       .  S
Zr2125     O2152   2.430       .  S
Zr2125     O2140   2.425       .  S
Zr2125     O2132   2.435       .  S
Zr2125     O2133   2.378       .  S
Zr2125     O2134   2.386       .  S
Zr2125     O2131   2.312       .  S
Zr2126     O2145   2.436       .  S
Zr2126     O2138   2.434       .  S
Zr2126     O2139   2.467       .  S
Zr2126     O2132   2.409       .  S
Zr2126     O2133   2.399       .  S
Zr2127     O2129   2.441       .  S
Zr2127     O2151   2.443       .  S
Zr2127     O2153   2.633       .  S
Zr2127     O2134   2.418       .  S
Zr2127     O2131   2.280       .  S
Zr2128     O2154   2.434       .  S
Zr2128     O2155   2.444       .  S
Zr2128     O2130   2.450       .  S
Zr2128     O2132   2.430       .  S
Zr2128     O2131   2.319       .  S
O2129      H2166   0.990       .  S
O2130      H2161   0.991       .  S
O2130      H2175   0.991       .  S
O2132      H2158   0.965       .  S
O2133     Zr2143   2.359       .  S
O2134     Zr2143   2.423       .  S
O2134      H2159   0.966       .  S
C2135      C4741   1.484       .  S
C2136      C3637   1.545   1_545  S
C2137      C4722   1.489       .  S
O2138      H2174   0.990       .  S
O2139      C2141   1.287       .  A
O2140      C2141   1.277       .  A
C2141      C3618   1.494       .  S
O2142     Zr2143   2.439       .  S
O2142      H2171   0.990       .  S
Zr2143     O2146   2.437       .  S
Zr2143     O2147   2.439       .  S
Zr2143     O2148   2.363       .  S
O2144      C2149   1.289       .  A
O2145      H2162   0.990       .  S
O2145      H2177   0.990       .  S
O2146      H2163   0.990       .  S
O2147      H2167   0.990       .  S
O2147      H2176   0.990       .  S
O2148      C2149   1.267       .  A
C2149      C3666   1.482       .  S
O2150      H2169   0.990       .  S
O2150      H2173   0.992       .  S
O2151      H2165   0.991       .  S
O2151      H2172   0.989       .  S
O2152      C2156   1.278       .  A
O2153      C2156   1.323       .  A
O2154      H2164   0.989       .  S
O2155      H2168   0.991       .  S
C2156      C3653   1.559       .  S
Zr2179     O2180   2.444       .  S
Zr2179     O2181   2.457       .  S
Zr2179     O2182   2.420       .  S
Zr2179     O2185   2.438       .  S
Zr2179     O2187   2.372       .  S
Zr2179     O2188   2.400       .  S
Zr2179     O2189   2.423       .  S
Zr2179     O2190   2.370       .  S
O2180      H2236   0.990       .  S
O2180      H2244   0.990       .  S
O2181      C2201   1.287       .  A
O2182      C2203   1.277       .  A
O2183     Zr2193   2.629       .  S
O2183      C2202   1.325       .  A
O2184     Zr2192   2.454       .  S
O2184      C2203   1.285       .  A
O2185      C2202   1.285       .  A
O2186     Zr2194   2.379       .  S
O2186      C2201   1.271       .  A
O2187     Zr2192   2.387       .  S
O2187     Zr2194   2.363       .  S
O2188     Zr2193   2.423       .  S
O2188     Zr2194   2.413       .  S
O2188      H2223   0.966       .  S
O2189     Zr2192   2.399       .  S
O2189     Zr2209   2.430       .  S
O2189      H2226   0.966       .  S
O2190     Zr2193   2.355       .  S
O2190     Zr2209   2.363       .  S
Zr2191     O2216   2.446       .  S
Zr2191     O2210   2.411       .  S
Zr2191     O2218   2.430       .  S
Zr2191     O2206   2.403       .  S
Zr2191     O2197   2.370       .  S
Zr2191     O2198   2.415       .  S
Zr2191     O2199   2.385       .  S
Zr2191     O2200   2.398       .  S
Zr2192     O2211   2.436       .  S
Zr2192     O2204   2.436       .  S
Zr2192     O2205   2.438       .  S
Zr2192     O2198   2.406       .  S
Zr2192     O2199   2.387       .  S
Zr2193     O2195   2.435       .  S
Zr2193     O2217   2.435       .  S
Zr2193     O2219   2.632       .  S
Zr2193     O2197   2.370       .  S
Zr2193     O2200   2.407       .  S
Zr2194     O2220   2.434       .  S
Zr2194     O2221   2.430       .  S
Zr2194     O2196   2.438       .  S
Zr2194     O2197   2.362       .  S
Zr2194     O2198   2.390       .  S
O2195      H2232   0.990       .  S
O2196      H2227   0.990       .  S
O2196      H2241   0.990       .  S
O2198      H2224   0.965       .  S
O2199     Zr2209   2.373       .  S
O2200     Zr2209   2.415       .  S
O2200      H2225   0.966       .  S
C2201      C4693   1.470       .  S
C2202      C3634   1.544       .  S
C2203      C4818   1.489       .  S
O2204      H2240   0.990       .  S
O2205      C2207   1.285       .  A
O2206      C2207   1.278       .  A
C2207      C4498   1.480       .  S
O2208     Zr2209   2.429       .  S
O2208      H2237   0.990       .  S
Zr2209     O2212   2.436       .  S
Zr2209     O2213   2.439       .  S
Zr2209     O2214   2.410       .  S
O2210      C2215   1.270       .  A
O2211      H2228   0.990       .  S
O2211      H2243   0.990       .  S
O2212      H2229   0.991       .  S
O2213      H2233   0.990       .  S
O2213      H2242   0.991       .  S
O2214      C2215   1.276       .  A
C2215      C4389   1.465       .  S
O2216      H2235   0.991       .  S
O2216      H2239   0.991       .  S
O2217      H2231   0.990       .  S
O2217      H2238   0.990       .  S
O2218      C2222   1.281       .  A
O2219      C2222   1.326       .  A
O2220      H2230   0.990       .  S
O2221      H2234   0.990       .  S
C2222      C3602   1.545       .  S
Zr2245     O2246   2.446       .  S
Zr2245     O2247   2.443       .  S
Zr2245     O2248   2.407       .  S
Zr2245     O2251   2.449       .  S
Zr2245     O2253   2.378       .  S
Zr2245     O2254   2.396       .  S
Zr2245     O2255   2.422       .  S
Zr2245     O2256   2.375       .  S
O2246      H2302   0.991       .  S
O2246      H2310   0.991       .  S
O2247      C2267   1.285       .  A
O2248      C2269   1.277       .  A
O2249     Zr2259   2.637       .  S
O2249      C2268   1.325       .  A
O2250     Zr2258   2.455       .  S
O2250      C2269   1.285       .  A
O2251      C2268   1.285       .  A
O2252     Zr2260   2.397       .  S
O2252      C2267   1.276       .  A
O2253     Zr2258   2.389       .  S
O2253     Zr2260   2.357       .  S
O2254     Zr2259   2.417       .  S
O2254     Zr2260   2.416       .  S
O2254      H2289   0.965       .  S
O2255     Zr2258   2.400       .  S
O2255     Zr2275   2.429       .  S
O2255      H2292   0.963       .  S
O2256     Zr2259   2.376       .  S
O2256     Zr2275   2.374       .  S
Zr2257     O2282   2.447       .  S
Zr2257     O2276   2.408       .  S
Zr2257     O2284   2.419       .  S
Zr2257     O2272   2.395       .  S
Zr2257     O2263   2.366       .  S
Zr2257     O2264   2.414       .  S
Zr2257     O2265   2.384       .  S
Zr2257     O2266   2.395       .  S
Zr2258     O2277   2.434       .  S
Zr2258     O2270   2.435       .  S
Zr2258     O2271   2.436       .  S
Zr2258     O2264   2.397       .  S
Zr2258     O2265   2.402       .  S
Zr2259     O2261   2.436       .  S
Zr2259     O2283   2.436       .  S
Zr2259     O2285   2.643       .  S
Zr2259     O2263   2.364       .  S
Zr2259     O2266   2.423       .  S
Zr2260     O2286   2.435       .  S
Zr2260     O2287   2.432       .  S
Zr2260     O2262   2.438       .  S
Zr2260     O2263   2.359       .  S
Zr2260     O2264   2.400       .  S
O2261      H2298   0.989       .  S
O2262      H2293   0.990       .  S
O2262      H2307   0.990       .  S
O2264      H2290   0.966       .  S
O2265     Zr2275   2.369       .  S
O2266     Zr2275   2.413       .  S
O2266      H2291   0.968       .  S
C2267      C4469   1.471       .  S
C2268      C3605   1.556       .  S
C2269      C4437   1.496       .  S
O2270      H2306   0.990       .  S
O2271      C2273   1.283       .  A
O2272      C2273   1.277       .  A
C2273      C3554   1.487       .  S
O2274     Zr2275   2.440       .  S
O2274      H2303   0.991       .  S
Zr2275     O2278   2.445       .  S
Zr2275     O2279   2.441       .  S
Zr2275     O2280   2.421       .  S
O2276      C2281   1.271       .  A
O2277      H2294   0.990       .  S
O2277      H2309   0.991       .  S
O2278      H2295   0.990       .  S
O2279      H2299   0.991       .  S
O2279      H2308   0.987       .  S
O2280      C2281   1.277       .  A
C2281      C3586   1.471       .  S
O2282      H2301   0.991       .  S
O2282      H2305   0.990       .  S
O2283      H2297   0.990       .  S
O2283      H2304   0.990       .  S
O2284      C2288   1.278       .  A
O2285      C2288   1.328       .  A
O2286      H2296   0.989       .  S
O2287      H2300   0.990       .  S
C2288      C3570   1.542       .  S
Zr2311     O2312   2.449       .  S
Zr2311     O2313   2.399       .  S
Zr2311     O2314   2.367       .  S
Zr2311     O2317   2.407       .  S
Zr2311     O2319   2.379       .  S
Zr2311     O2320   2.389       .  S
Zr2311     O2321   2.420       .  S
Zr2311     O2322   2.358       .  S
O2312      H2368   0.991       .  S
O2312      H2376   0.990       .  S
O2313      C2333   1.269       .  A
O2314      C2335   1.270       .  A
O2315     Zr2325   2.666       .  S
O2315      C2334   1.332       .  A
O2316     Zr2324   2.446       .  S
O2316      C2335   1.285       .  A
O2317      C2334   1.277       .  A
O2318     Zr2326   2.441       .  S
O2318      C2333   1.278       .  A
O2319     Zr2324   2.392       .  S
O2319     Zr2326   2.368       .  S
O2320     Zr2325   2.423       .  S
O2320     Zr2326   2.416       .  S
O2320      H2355   0.967       .  S
O2321     Zr2324   2.399       .  S
O2321     Zr2341   2.416       .  S
O2321      H2358   0.965       .  S
O2322     Zr2325   2.341       .  S
O2322     Zr2341   2.349       .  S
Zr2323     O2348   2.445       .  S
Zr2323     O2342   2.471       .  S
Zr2323     O2350   2.458       .  S
Zr2323     O2338   2.399       .  S
Zr2323     O2329   2.372       .  S
Zr2323     O2330   2.435       .  S
Zr2323     O2331   2.373       .  S
Zr2323     O2332   2.397       .  S
Zr2324     O2343   2.439       .  S
Zr2324     O2336   2.435       .  S
Zr2324     O2337   2.448       .  S
Zr2324     O2330   2.400       .  S
Zr2324     O2331   2.384       .  S
Zr2325     O2327   2.434       .  S
Zr2325     O2349   2.436       .  S
Zr2325     O2351   2.625       .  S
Zr2325     O2329   2.368       .  S
Zr2325     O2332   2.424       .  S
Zr2326     O2352   2.438       .  S
Zr2326     O2353   2.443       .  S
Zr2326     O2328   2.446       .  S
Zr2326     O2329   2.371       .  S
Zr2326     O2330   2.437       .  S
O2327      H2364   0.990       .  S
O2328      H2359   0.990       .  S
O2328      H2373   0.991       .  S
O2330      H2356   0.963       .  S
O2331     Zr2341   2.358       .  S
O2332     Zr2341   2.410       .  S
O2332      H2357   0.967       .  S
C2333      C3541   1.482       .  S
C2334      C3650   1.553       .  S
C2335      C3490   1.468       .  S
O2336      H2372   0.991       .  S
O2337      C2339   1.283       .  A
O2338      C2339   1.275       .  A
C2339      C3509   1.483       .  S
O2340     Zr2341   2.431       .  S
O2340      H2369   0.990       .  S
Zr2341     O2344   2.435       .  S
Zr2341     O2345   2.438       .  S
Zr2341     O2346   2.402       .  S
O2342      C2347   1.291       .  A
O2343      H2360   0.990       .  S
O2343      H2375   0.990       .  S
O2344      H2361   0.990       .  S
O2345      H2365   0.990       .  S
O2345      H2374   0.989       .  S
O2346      C2347   1.276       .  A
C2347      C3525   1.492       .  S
O2348      H2367   0.990       .  S
O2348      H2371   0.991       .  S
O2349      H2363   0.990       .  S
O2349      H2370   0.990       .  S
O2350      C2354   1.288       .  A
O2351      C2354   1.325       .  A
O2352      H2362   0.990       .  S
O2353      H2366   0.991       .  S
C2354      C3573   1.547       .  S
Zr2377     O2378   2.443       .  S
Zr2377     O2379   2.422       .  S
Zr2377     O2380   2.347       .  S
Zr2377     O2383   2.434       .  S
Zr2377     O2385   2.399       .  S
Zr2377     O2386   2.373       .  S
Zr2377     O2387   2.438       .  S
Zr2377     O2388   2.390       .  S
O2378      H2434   0.991       .  S
O2378      H2442   0.990       .  S
O2379      C2399   1.278       .  A
O2380      C2401   1.261       .  A
O2381     Zr2391   2.451       .  S
O2381      C2400   1.289       .  A
O2382     Zr2390   2.677       .  S
O2382      C2401   1.333       .  A
O2383      C2400   1.282       .  A
O2384     Zr2392   2.420       .  S
O2384      C2399   1.276       .  A
O2385     Zr2390   2.386       .  S
O2385     Zr2392   2.376       .  S
O2386     Zr2391   2.372       .  S
O2386     Zr2392   2.350       .  S
O2386      H2421   0.962       .  S
O2387     Zr2390   2.418       .  S
O2387     Zr2407   2.377       .  S
O2387      H2424   0.965       .  S
O2388     Zr2391   2.382       .  S
O2388     Zr2407   2.421       .  S
Zr2389     O2414   2.446       .  S
Zr2389     O2408   2.423       .  S
Zr2389     O2416   2.427       .  S
Zr2389     O2404   2.395       .  S
Zr2389     O2395   2.390       .  S
Zr2389     O2396   2.416       .  S
Zr2389     O2397   2.396       .  S
Zr2389     O2398   2.385       .  S
Zr2390     O2409   2.434       .  S
Zr2390     O2402   2.434       .  S
Zr2390     O2403   2.653       .  S
Zr2390     O2396   2.419       .  S
Zr2390     O2397   2.433       .  S
Zr2391     O2393   2.436       .  S
Zr2391     O2415   2.442       .  S
Zr2391     O2417   2.406       .  S
Zr2391     O2395   2.413       .  S
Zr2391     O2398   2.391       .  S
Zr2392     O2418   2.435       .  S
Zr2392     O2419   2.438       .  S
Zr2392     O2394   2.438       .  S
Zr2392     O2395   2.387       .  S
Zr2392     O2396   2.381       .  S
O2393      H2430   0.990       .  S
O2394      H2425   0.990       .  S
O2394      H2439   0.990       .  S
O2396      H2422   0.965       .  S
O2397     Zr2407   2.392       .  S
O2398     Zr2407   2.377       .  S
O2398      H2423   0.966       .  S
C2399      C3557   1.456       .  S
C2400      C3522   1.497       .  S
C2401      C3477   1.566       .  S
O2402      H2438   0.991       .  S
O2403      C2405   1.330       .  A
O2404      C2405   1.275       .  A
C2405      C3461   1.571       .  S
O2406     Zr2407   2.436       .  S
O2406      H2435   0.991       .  S
Zr2407     O2410   2.436       .  S
Zr2407     O2411   2.438       .  S
Zr2407     O2412   2.433       .  S
O2408      C2413   1.280       .  A
O2409      H2426   0.990       .  S
O2409      H2441   0.991       .  S
O2410      H2427   0.990       .  S
O2411      H2431   0.991       .  S
O2411      H2440   0.989       .  S
O2412      C2413   1.281       .  A
C2413      C3749   1.481       .  S
O2414      H2433   0.991       .  S
O2414      H2437   0.990       .  S
O2415      H2429   0.990       .  S
O2415      H2436   0.990       .  S
O2416      C2420   1.281       .  A
O2417      C2420   1.275       .  A
O2418      H2428   0.990       .  S
O2419      H2432   0.990       .  S
C2420      C3698   1.461       .  S
Zr2443     O2444   2.453       .  S
Zr2443     O2445   2.446       .  S
Zr2443     O2446   2.382       .  S
Zr2443     O2449   2.436       .  S
Zr2443     O2451   2.405       .  S
Zr2443     O2452   2.375       .  S
Zr2443     O2453   2.434       .  S
Zr2443     O2454   2.387       .  S
O2444      H2500   0.991       .  S
O2444      H2508   0.990       .  S
O2445      C2465   1.283       .  A
O2446      C2467   1.271       .  A
O2447     Zr2457   2.433       .  S
O2447      C2466   1.283       .  A
O2448     Zr2456   2.651       .  S
O2448      C2467   1.330       .  A
O2449      C2466   1.283       .  A
O2450     Zr2458   2.411       .  S
O2450      C2465   1.278       .  A
O2451     Zr2456   2.442       .  S
O2451     Zr2458   2.387       .  S
O2452     Zr2457   2.363       .  S
O2452     Zr2458   2.385       .  S
O2452      H2487   0.958       .  S
O2453     Zr2456   2.427       .  S
O2453     Zr2473   2.368       .  S
O2453      H2490   0.962       .  S
O2454     Zr2457   2.388       .  S
O2454     Zr2473   2.383       .  S
Zr2455     O2480   2.447       .  S
Zr2455     O2474   2.436       .  S
Zr2455     O2482   2.410       .  S
Zr2455     O2470   2.334       .  S
Zr2455     O2461   2.392       .  S
Zr2455     O2462   2.424       .  S
Zr2455     O2463   2.396       .  S
Zr2455     O2464   2.383       .  S
Zr2456     O2475   2.435       .  S
Zr2456     O2468   2.434       .  S
Zr2456     O2469   2.726       .  S
Zr2456     O2462   2.395       .  S
Zr2456     O2463   2.378       .  S
Zr2457     O2459   2.437       .  S
Zr2457     O2481   2.436       .  S
Zr2457     O2483   2.422       .  S
Zr2457     O2461   2.392       .  S
Zr2457     O2464   2.384       .  S
Zr2458     O2484   2.436       .  S
Zr2458     O2485   2.438       .  S
Zr2458     O2460   2.435       .  S
Zr2458     O2461   2.421       .  S
Zr2458     O2462   2.368       .  S
O2459      H2496   0.991       .  S
O2460      H2491   0.990       .  S
O2460      H2505   0.990       .  S
O2462      H2488   0.964       .  S
O2463     Zr2473   2.383       .  S
O2464     Zr2473   2.363       .  S
O2464      H2489   0.965       .  S
C2465      C3506   1.473       .  S
C2466      C3589   1.479       .  S
C2467      C3474   1.554       .  S
O2468      H2504   0.990       .  S
O2469      C2471   1.345       .  A
O2470      C2471   1.260       .  A
C2471      C3445   1.576       .  S
O2472     Zr2473   2.440       .  S
O2472      H2501   0.990       .  S
Zr2473     O2476   2.435       .  S
Zr2473     O2477   2.442       .  S
Zr2473     O2478   2.404       .  S
O2474      C2479   1.279       .  A
O2475      H2492   0.990       .  S
O2475      H2507   0.989       .  S
O2476      H2493   0.991       .  S
O2477      H2497   0.991       .  S
O2477      H2506   0.989       .  S
O2478      C2479   1.273       .  A
C2479      C5061   1.454       .  S
O2480      H2499   0.991       .  S
O2480      H2503   0.991       .  S
O2481      H2495   0.990       .  S
O2481      H2502   0.991       .  S
O2482      C2486   1.277       .  A
O2483      C2486   1.282       .  A
O2484      H2494   0.991       .  S
O2485      H2498   0.991       .  S
C2486      C4885   1.471       .  S
Zr2509     O2510   2.442       .  S
Zr2509     O2511   2.434       .  S
Zr2509     O2512   2.326       .  S
Zr2509     O2515   2.417       .  S
Zr2509     O2517   2.401       .  S
Zr2509     O2518   2.373       .  S
Zr2509     O2519   2.435       .  S
Zr2509     O2520   2.383       .  S
O2510      H2566   0.990       .  S
O2510      H2574   0.991       .  S
O2511      C2531   1.282       .  A
O2512      C2533   1.255       .  A
O2513     Zr2523   2.418       .  S
O2513      C2532   1.282       .  A
O2514     Zr2522   2.704       .  S
O2514      C2533   1.338       .  A
O2515      C2532   1.280       .  A
O2516     Zr2524   2.413       .  S
O2516      C2531   1.280       .  A
O2517     Zr2522   2.395       .  S
O2517     Zr2524   2.377       .  S
O2518     Zr2523   2.373       .  S
O2518     Zr2524   2.356       .  S
O2518      H2553   0.965       .  S
O2519     Zr2522   2.401       .  S
O2519     Zr2539   2.370       .  S
O2519      H2556   0.965       .  S
O2520     Zr2523   2.388       .  S
O2520     Zr2539   2.410       .  S
Zr2521     O2546   2.440       .  S
Zr2521     O2540   2.447       .  S
Zr2521     O2548   2.429       .  S
Zr2521     O2536   2.397       .  S
Zr2521     O2527   2.395       .  S
Zr2521     O2528   2.420       .  S
Zr2521     O2529   2.396       .  S
Zr2521     O2530   2.370       .  S
Zr2522     O2541   2.435       .  S
Zr2522     O2534   2.434       .  S
Zr2522     O2535   2.671       .  S
Zr2522     O2528   2.416       .  S
Zr2522     O2529   2.431       .  S
Zr2523     O2525   2.434       .  S
Zr2523     O2547   2.438       .  S
Zr2523     O2549   2.393       .  S
Zr2523     O2527   2.398       .  S
Zr2523     O2530   2.386       .  S
Zr2524     O2550   2.435       .  S
Zr2524     O2551   2.436       .  S
Zr2524     O2526   2.434       .  S
Zr2524     O2527   2.397       .  S
Zr2524     O2528   2.373       .  S
O2525      H2562   0.990       .  S
O2526      H2557   0.990       .  S
O2526      H2571   0.989       .  S
O2528      H2554   0.965       .  S
O2529     Zr2539   2.393       .  S
O2530     Zr2539   2.367       .  S
O2530      H2555   0.966       .  S
C2531      C3429   1.461       .  S
C2532      C3394   1.467       .  S
C2533      C3410   1.564       .  S
O2534      H2570   0.990       .  S
O2535      C2537   1.335       .  A
O2536      C2537   1.278       .  A
C2537      C3442   1.577       .  S
O2538     Zr2539   2.436       .  S
O2538      H2567   0.990       .  S
Zr2539     O2542   2.436       .  S
Zr2539     O2543   2.439       .  S
Zr2539     O2544   2.405       .  S
O2540      C2545   1.285       .  A
O2541      H2558   0.990       .  S
O2541      H2573   0.990       .  S
O2542      H2559   0.990       .  S
O2543      H2563   0.990       .  S
O2543      H2572   0.990       .  S
O2544      C2545   1.279       .  A
C2545      C4837   1.488       .  S
O2546      H2565   0.991       .  S
O2546      H2569   0.990       .  S
O2547      H2561   0.990       .  S
O2547      H2568   0.990       .  S
O2548      C2552   1.282       .  A
O2549      C2552   1.275       .  A
O2550      H2560   0.989       .  S
O2551      H2564   0.990       .  S
C2552      C5125   1.452       .  S
Zr2575     O2576   2.444       .  S
Zr2575     O2577   2.473       .  S
Zr2575     O2578   2.418       .  S
Zr2575     O2581   2.442       .  S
Zr2575     O2583   2.398       .  S
Zr2575     O2584   2.377       .  S
Zr2575     O2585   2.435       .  S
Zr2575     O2586   2.398       .  S
O2576      H2632   0.989       .  S
O2576      H2640   0.989       .  S
O2577      C2597   1.289       .  A
O2578      C2599   1.280       .  A
O2579     Zr2589   2.426       .  S
O2579      C2598   1.283       .  A
O2580     Zr2588   2.636       .  S
O2580      C2599   1.327       .  A
O2581      C2598   1.284       .  A
O2582     Zr2590   2.406       .  S
O2582      C2597   1.276       .  A
O2583     Zr2588   2.442       .  S
O2583     Zr2590   2.393       .  S
O2584     Zr2589   2.372       .  S
O2584     Zr2590   2.382       .  S
O2584      H2619   0.964       .  S
O2585     Zr2588   2.424       .  S
O2585     Zr2605   2.386       .  S
O2585      H2622   0.962       .  S
O2586     Zr2589   2.399       .  S
O2586     Zr2605   2.387       .  S
Zr2587     O2612   2.443       .  S
Zr2587     O2606   2.428       .  S
Zr2587     O2614   2.401       .  S
Zr2587     O2602   2.337       .  S
Zr2587     O2593   2.387       .  S
Zr2587     O2594   2.425       .  S
Zr2587     O2595   2.398   1_556  S
Zr2587     O2596   2.389       .  S
Zr2588     O2607   2.432       .  S
Zr2588     O2600   2.433       .  S
Zr2588     O2601   2.702   1_554  S
Zr2588     O2594   2.400   1_554  S
Zr2588     O2595   2.376       .  S
Zr2589     O2591   2.437       .  S
Zr2589     O2613   2.438       .  S
Zr2589     O2615   2.432   1_554  S
Zr2589     O2593   2.395   1_554  S
Zr2589     O2596   2.375   1_554  S
Zr2590     O2616   2.435       .  S
Zr2590     O2617   2.438   1_554  S
Zr2590     O2592   2.439       .  S
Zr2590     O2593   2.405   1_554  S
Zr2590     O2594   2.370   1_554  S
O2591      H2628   0.990       .  S
O2592      H2623   0.990       .  S
O2592      H2637   0.990       .  S
O2594      H2620   0.966       .  S
O2595     Zr2605   2.383       .  S
O2596     Zr2605   2.354   1_556  S
O2596      H2621   0.966       .  S
C2597      C3378   1.483       .  S
C2598      C3365   1.477       .  S
C2599      C3413   1.561       .  S
O2600      H2636   0.991       .  S
O2601      C2603   1.339       .  A
O2602      C2603   1.260       .  A
C2603      C3458   1.573       .  S
O2604     Zr2605   2.438       .  S
O2604      H2633   0.990       .  S
Zr2605     O2608   2.435       .  S
Zr2605     O2609   2.438       .  S
Zr2605     O2610   2.425   1_554  S
O2606      C2611   1.277       .  A
O2607      H2624   0.989       .  S
O2607      H2639   0.990       .  S
O2608      H2625   0.990       .  S
O2609      H2629   0.990       .  S
O2609      H2638   0.991       .  S
O2610      C2611   1.275       .  A
C2611      C3682   1.456       .  S
O2612      H2631   0.991       .  S
O2612      H2635   0.990       .  S
O2613      H2627   0.990       .  S
O2613      H2634   0.990       .  S
O2614      C2618   1.276       .  A
O2615      C2618   1.282       .  A
O2616      H2626   0.990   1_554  S
O2617      H2630   0.991       .  S
C2618      C3797   1.480       .  S
Zr2641     O2642   2.448       .  S
Zr2641     O2643   2.415       .  S
Zr2641     O2644   2.387       .  S
Zr2641     O2647   2.420       .  S
Zr2641     O2649   2.378       .  S
Zr2641     O2650   2.393       .  S
Zr2641     O2651   2.414   1_455  S
Zr2641     O2652   2.371   1_455  S
O2642      H2698   0.990       .  S
O2642      H2706   0.991       .  S
O2643      C2663   1.275       .  A
O2644      C2665   1.275       .  A
O2645     Zr2655   2.633       .  S
O2645      C2664   1.325       .  A
O2646     Zr2654   2.444       .  S
O2646      C2665   1.285       .  A
O2647      C2664   1.278       .  A
O2648     Zr2656   2.418       .  S
O2648      C2663   1.276       .  A
O2649     Zr2654   2.391       .  S
O2649     Zr2656   2.366       .  S
O2650     Zr2655   2.422       .  S
O2650     Zr2656   2.413       .  S
O2650      H2685   0.966       .  S
O2651     Zr2654   2.402   1_655  S
O2651     Zr2671   2.401       .  S
O2651      H2688   0.966       .  S
O2652     Zr2655   2.369   1_655  S
O2652     Zr2671   2.365       .  S
Zr2653     O2678   2.441       .  S
Zr2653     O2672   2.446       .  S
Zr2653     O2680   2.437       .  S
Zr2653     O2668   2.422       .  S
Zr2653     O2659   2.373   1_655  S
Zr2653     O2660   2.422   1_655  S
Zr2653     O2661   2.380       .  S
Zr2653     O2662   2.400       .  S
Zr2654     O2673   2.437   1_455  S
Zr2654     O2666   2.436       .  S
Zr2654     O2667   2.451   1_455  S
Zr2654     O2660   2.404       .  S
Zr2654     O2661   2.393   1_455  S
Zr2655     O2657   2.435   1_455  S
Zr2655     O2679   2.435       .  S
Zr2655     O2681   2.623   1_455  S
Zr2655     O2659   2.373       .  S
Zr2655     O2662   2.410   1_455  S
Zr2656     O2682   2.436       .  S
Zr2656     O2683   2.428       .  S
Zr2656     O2658   2.445       .  S
Zr2656     O2659   2.373       .  S
Zr2656     O2660   2.421       .  S
O2657      H2694   0.990       .  S
O2658      H2689   0.988       .  S
O2658      H2703   0.989       .  S
O2660      H2686   0.965       .  S
O2661     Zr2671   2.351       .  S
O2662     Zr2671   2.414       .  S
O2662      H2687   0.966       .  S
C2663      C3346   1.473       .  S
C2664      C3333   1.546       .  S
C2665      C3301   1.487       .  S
O2666      H2702   0.990       .  S
O2667      C2669   1.281       .  A
O2668      C2669   1.276       .  A
C2669      C4674   1.497       .  S
O2670     Zr2671   2.434       .  S
O2670      H2699   0.990       .  S
Zr2671     O2674   2.439       .  S
Zr2671     O2675   2.433       .  S
Zr2671     O2676   2.396       .  S
O2672      C2677   1.286       .  A
O2673      H2690   0.990       .  S
O2673      H2705   0.990       .  S
O2674      H2691   0.990       .  S
O2675      H2695   0.990       .  S
O2675      H2704   0.990       .  S
O2676      C2677   1.276       .  A
C2677      C4578   1.478       .  S
O2678      H2697   0.991       .  S
O2678      H2701   0.989       .  S
O2679      H2693   0.990       .  S
O2679      H2700   0.990       .  S
O2680      C2684   1.285       .  A
O2681      C2684   1.324       .  A
O2682      H2692   0.990       .  S
O2683      H2696   0.991       .  S
C2684      C3314   1.546       .  S
Zr2707     O2708   2.445       .  S
Zr2707     O2709   2.456       .  S
Zr2707     O2710   2.427       .  S
Zr2707     O2713   2.431       .  S
Zr2707     O2715   2.374       .  S
Zr2707     O2716   2.397       .  S
Zr2707     O2717   2.426       .  S
Zr2707     O2718   2.385       .  S
O2708      H2764   0.991       .  S
O2708      H2772   0.988       .  S
O2709      C2729   1.287       .  A
O2710      C2731   1.279       .  A
O2711     Zr2721   2.641   1_455  S
O2711      C2730   1.328   1_455  A
O2712     Zr2720   2.459       .  S
O2712      C2731   1.285       .  A
O2713      C2730   1.282       .  A
O2714     Zr2722   2.396       .  S
O2714      C2729   1.275       .  A
O2715     Zr2720   2.386       .  S
O2715     Zr2722   2.354       .  S
O2716     Zr2721   2.415       .  S
O2716     Zr2722   2.420       .  S
O2716      H2751   0.966       .  S
O2717     Zr2720   2.403       .  S
O2717     Zr2737   2.445       .  S
O2717      H2754   0.959       .  S
O2718     Zr2721   2.370       .  S
O2718     Zr2737   2.379       .  S
Zr2719     O2744   2.446       .  S
Zr2719     O2738   2.400       .  S
Zr2719     O2746   2.421       .  S
Zr2719     O2734   2.400       .  S
Zr2719     O2725   2.357       .  S
Zr2719     O2726   2.413       .  S
Zr2719     O2727   2.381       .  S
Zr2719     O2728   2.396       .  S
Zr2720     O2739   2.434       .  S
Zr2720     O2732   2.435       .  S
Zr2720     O2733   2.431       .  S
Zr2720     O2726   2.402       .  S
Zr2720     O2727   2.394       .  S
Zr2721     O2723   2.437   1_655  S
Zr2721     O2745   2.434   1_655  S
Zr2721     O2747   2.633   1_655  S
Zr2721     O2725   2.365       .  S
Zr2721     O2728   2.420       .  S
Zr2722     O2748   2.436       .  S
Zr2722     O2749   2.434       .  S
Zr2722     O2724   2.439       .  S
Zr2722     O2725   2.348       .  S
Zr2722     O2726   2.408       .  S
O2723      H2760   0.990       .  S
O2724      H2755   0.990       .  S
O2724      H2769   0.989       .  S
O2726      H2752   0.966       .  S
O2727     Zr2737   2.362       .  S
O2728     Zr2737   2.407       .  S
O2728      H2753   0.968       .  S
C2729      C4322   1.481       .  S
C2730      C3282   1.549   1_655  S
C2731      C4565   1.505       .  S
O2732      H2768   0.990       .  S
O2733      C2735   1.286       .  A
O2734      C2735   1.277       .  A
C2735      C4629   1.481       .  S
O2736     Zr2737   2.438       .  S
O2736      H2765   0.991       .  S
Zr2737     O2740   2.439       .  S
Zr2737     O2741   2.445       .  S
Zr2737     O2742   2.444       .  S
O2738      C2743   1.270       .  A
O2739      H2756   0.991       .  S
O2739      H2771   0.990       .  S
O2740      H2757   0.990       .  S
O2741      H2761   0.990       .  S
O2741      H2770   0.989       .  S
O2742      C2743   1.279       .  A
C2743      C4645   1.479       .  S
O2744      H2763   0.990       .  S
O2744      H2767   0.991       .  S
O2745      H2759   0.990       .  S
O2745      H2766   0.990       .  S
O2746      C2750   1.279       .  A
O2747      C2750   1.326   1_455  A
O2748      H2758   0.990       .  S
O2749      H2762   0.991       .  S
C2750      C3317   1.535   1_655  S
Zr2773     O2774   2.441       .  S
Zr2773     O2775   2.431       .  S
Zr2773     O2776   2.423       .  S
Zr2773     O2779   2.412       .  S
Zr2773     O2781   2.367       .  S
Zr2773     O2782   2.397       .  S
Zr2773     O2783   2.414   1_455  S
Zr2773     O2784   2.387   1_455  S
O2774      H2830   0.990       .  S
O2774      H2838   0.990       .  S
O2775      C2795   1.281       .  A
O2776      C2797   1.278       .  A
O2777     Zr2787   2.632   1_655  S
O2777      C2796   1.323   1_655  A
O2778     Zr2786   2.449       .  S
O2778      C2797   1.286       .  A
O2779      C2796   1.275       .  A
O2780     Zr2788   2.412       .  S
O2780      C2795   1.276       .  A
O2781     Zr2786   2.385       .  S
O2781     Zr2788   2.365       .  S
O2782     Zr2787   2.431       .  S
O2782     Zr2788   2.403       .  S
O2782      H2817   0.966       .  S
O2783     Zr2786   2.402   1_655  S
O2783     Zr2803   2.429       .  S
O2783      H2820   0.966       .  S
O2784     Zr2787   2.372   1_655  S
O2784     Zr2803   2.369       .  S
Zr2785     O2810   2.447       .  S
Zr2785     O2804   2.411       .  S
Zr2785     O2812   2.413       .  S
Zr2785     O2800   2.399       .  S
Zr2785     O2791   2.380   1_655  S
Zr2785     O2792   2.419   1_655  S
Zr2785     O2793   2.376       .  S
Zr2785     O2794   2.394       .  S
Zr2786     O2805   2.435   1_455  S
Zr2786     O2798   2.434       .  S
Zr2786     O2799   2.435   1_455  S
Zr2786     O2792   2.410       .  S
Zr2786     O2793   2.385   1_455  S
Zr2787     O2789   2.435   1_455  S
Zr2787     O2811   2.436       .  S
Zr2787     O2813   2.643       .  S
Zr2787     O2791   2.385       .  S
Zr2787     O2794   2.413   1_455  S
Zr2788     O2814   2.440       .  S
Zr2788     O2815   2.443       .  S
Zr2788     O2790   2.450       .  S
Zr2788     O2791   2.363       .  S
Zr2788     O2792   2.416       .  S
O2789      H2826   0.990       .  S
O2790      H2821   0.989       .  S
O2790      H2835   0.991       .  S
O2792      H2818   0.964       .  S
O2793     Zr2803   2.362       .  S
O2794     Zr2803   2.411       .  S
O2794      H2819   0.966       .  S
C2795      C3397   1.482       .  S
C2796      C3269   1.547       .  S
C2797      C3381   1.487       .  S
O2798      H2834   0.990       .  S
O2799      C2801   1.286       .  A
O2800      C2801   1.277       .  A
C2801      C4357   1.475       .  S
O2802     Zr2803   2.439       .  S
O2802      H2831   0.989       .  S
Zr2803     O2806   2.438       .  S
Zr2803     O2807   2.439       .  S
Zr2803     O2808   2.429       .  S
O2804      C2809   1.273       .  A
O2805      H2822   0.990       .  S
O2805      H2837   0.990       .  S
O2806      H2823   0.990       .  S
O2807      H2827   0.990       .  S
O2807      H2836   0.991       .  S
O2808      C2809   1.279       .  A
C2809      C4514   1.476       .  S
O2810      H2829   0.991       .  S
O2810      H2833   0.991       .  S
O2811      H2825   0.990       .  S
O2811      H2832   0.990       .  S
O2812      C2816   1.276       .  A
O2813      C2816   1.327   1_455  A
O2814      H2824   0.990       .  S
O2815      H2828   0.990       .  S
C2816      C3285   1.549   1_655  S
Zr2839     O2840   2.441       .  S
Zr2839     O2841   2.409       .  S
Zr2839     O2842   2.418       .  S
Zr2839     O2845   2.433       .  S
Zr2839     O2847   2.377       .  S
Zr2839     O2848   2.403       .  S
Zr2839     O2849   2.416       .  S
Zr2839     O2850   2.347       .  S
O2840      H2896   0.989       .  S
O2840      H2904   0.991       .  S
O2841      C2861   1.272       .  A
O2842      C2863   1.281       .  A
O2843     Zr2853   2.656   1_655  S
O2843      C2862   1.331   1_655  A
O2844     Zr2852   2.431       .  S
O2844      C2863   1.286       .  A
O2845      C2862   1.283       .  A
O2846     Zr2854   2.449       .  S
O2846      C2861   1.282       .  A
O2847     Zr2852   2.397       .  S
O2847     Zr2854   2.358       .  S
O2848     Zr2853   2.415       .  S
O2848     Zr2854   2.405       .  S
O2848      H2883   0.965       .  S
O2849     Zr2852   2.407       .  S
O2849     Zr2869   2.406       .  S
O2849      H2886   0.966       .  S
O2850     Zr2853   2.350       .  S
O2850     Zr2869   2.337       .  S
Zr2851     O2876   2.454       .  S
Zr2851     O2870   2.468       .  S
Zr2851     O2878   2.431       .  S
Zr2851     O2866   2.418       .  S
Zr2851     O2858   2.424       .  S
Zr2851     O2859   2.374       .  S
Zr2851     O2860   2.387       .  S
Zr2851     O2857   2.313       .  S
Zr2852     O2871   2.440       .  S
Zr2852     O2864   2.436       .  S
Zr2852     O2865   2.460       .  S
Zr2852     O2858   2.406       .  S
Zr2852     O2859   2.385       .  S
Zr2853     O2855   2.442   1_455  S
Zr2853     O2877   2.441   1_455  S
Zr2853     O2879   2.640       .  S
Zr2853     O2860   2.409       .  S
Zr2853     O2857   2.286       .  S
Zr2854     O2880   2.435       .  S
Zr2854     O2881   2.443       .  S
Zr2854     O2856   2.450       .  S
Zr2854     O2858   2.432       .  S
Zr2854     O2857   2.319       .  S
O2855      H2892   0.991       .  S
O2856      H2887   0.991       .  S
O2856      H2901   0.990       .  S
O2858      H2884   0.964       .  S
O2859     Zr2869   2.359       .  S
O2860     Zr2869   2.423       .  S
O2860      H2885   0.965       .  S
C2861      C3362   1.482       .  S
C2862      C3266   1.549   1_455  S
C2863      C3426   1.483       .  S
O2864      H2900   0.990       .  S
O2865      C2867   1.285       .  A
O2866      C2867   1.276       .  A
C2867      C3234   1.500       .  S
O2868     Zr2869   2.437       .  S
O2868      H2897   0.990       .  S
Zr2869     O2872   2.436       .  S
Zr2869     O2873   2.434       .  S
Zr2869     O2874   2.376       .  S
O2870      C2875   1.289       .  A
O2871      H2888   0.990       .  S
O2871      H2903   0.990       .  S
O2872      H2889   0.991       .  S
O2873      H2893   0.989       .  S
O2873      H2902   0.989       .  S
O2874      C2875   1.272       .  A
C2875      C3250   1.471       .  S
O2876      H2895   0.990       .  S
O2876      H2899   0.989       .  S
O2877      H2891   0.990       .  S
O2877      H2898   0.991       .  S
O2878      C2882   1.279       .  A
O2879      C2882   1.325       .  A
O2880      H2890   0.989       .  S
O2881      H2894   0.990       .  S
C2882      C3330   1.560       .  S
Zr2905     O2906   2.449       .  S
Zr2905     O2907   2.442       .  S
Zr2905     O2908   2.399       .  S
Zr2905     O2911   2.421       .  S
Zr2905     O2913   2.398       .  S
Zr2905     O2914   2.375       .  S
Zr2905     O2915   2.430       .  S
Zr2905     O2916   2.398       .  S
O2906      H2962   0.989       .  S
O2906      H2970   0.991       .  S
O2907      C2927   1.283       .  A
O2908      C2929   1.274       .  A
O2909     Zr2919   2.435       .  S
O2909      C2928   1.281       .  A
O2910     Zr2918   2.674       .  S
O2910      C2929   1.335       .  A
O2911      C2928   1.279       .  A
O2912     Zr2920   2.419       .  S
O2912      C2927   1.279       .  A
O2913     Zr2918   2.431       .  S
O2913     Zr2920   2.394       .  S
O2914     Zr2919   2.380       .  S
O2914     Zr2920   2.385       .  S
O2914      H2949   0.966       .  S
O2915     Zr2918   2.420       .  S
O2915     Zr2935   2.373       .  S
O2915      H2952   0.962       .  S
O2916     Zr2919   2.402       .  S
O2916     Zr2935   2.407       .  S
Zr2917     O2942   2.440       .  S
Zr2917     O2936   2.403       .  S
Zr2917     O2944   2.413       .  S
Zr2917     O2932   2.328       .  S
Zr2917     O2923   2.376       .  S
Zr2917     O2924   2.409       .  S
Zr2917     O2925   2.393       .  S
Zr2917     O2926   2.375   1_455  S
Zr2918     O2937   2.435       .  S
Zr2918     O2930   2.434       .  S
Zr2918     O2931   2.694   1_655  S
Zr2918     O2924   2.413   1_655  S
Zr2918     O2925   2.386   1_655  S
Zr2919     O2921   2.438       .  S
Zr2919     O2943   2.440       .  S
Zr2919     O2945   2.437   1_655  S
Zr2919     O2923   2.391   1_655  S
Zr2919     O2926   2.390       .  S
Zr2920     O2946   2.436       .  S
Zr2920     O2947   2.437   1_655  S
Zr2920     O2922   2.437       .  S
Zr2920     O2923   2.412   1_655  S
Zr2920     O2924   2.377   1_655  S
O2921      H2958   0.990       .  S
O2922      H2953   0.990       .  S
O2922      H2967   0.990       .  S
O2924      H2950   0.966       .  S
O2925     Zr2935   2.364   1_455  S
O2926     Zr2935   2.348       .  S
O2926      H2951   0.963   1_655  S
C2927      C5301   1.482       .  S
C2928      C5189   1.476       .  S
C2929      C3221   1.572       .  S
O2930      H2966   0.990       .  S
O2931      C2933   1.341       .  A
O2932      C2933   1.265       .  A
C2933      C3202   1.557       .  S
O2934     Zr2935   2.437       .  S
O2934      H2963   0.989       .  S
Zr2935     O2938   2.436       .  S
Zr2935     O2939   2.438       .  S
Zr2935     O2940   2.431   1_655  S
O2936      C2941   1.276       .  A
O2937      H2954   0.990       .  S
O2937      H2969   0.990       .  S
O2938      H2955   0.990       .  S
O2939      H2959   0.990       .  S
O2939      H2968   0.991       .  S
O2940      C2941   1.284       .  A
C2941      C3298   1.455       .  S
O2942      H2961   0.991       .  S
O2942      H2965   0.990       .  S
O2943      H2957   0.990       .  S
O2943      H2964   0.990       .  S
O2944      C2948   1.278       .  A
O2945      C2948   1.287       .  A
O2946      H2956   0.990       .  S
O2947      H2960   0.990       .  S
C2948      C3253   1.487       .  S
Zr2971     O2972   2.450       .  S
Zr2971     O2973   2.455       .  S
Zr2971     O2974   2.414       .  S
Zr2971     O2977   2.435       .  S
Zr2971     O2979   2.402       .  S
Zr2971     O2980   2.379       .  S
Zr2971     O2981   2.429       .  S
Zr2971     O2982   2.399       .  S
O2972      H3028   0.990       .  S
O2972      H3036   0.992       .  S
O2973      C2993   1.285       .  A
O2974      C2995   1.278       .  A
O2975     Zr2985   2.427       .  S
O2975      C2994   1.281       .  A
O2976     Zr2984   2.664       .  S
O2976      C2995   1.332       .  A
O2977      C2994   1.285       .  A
O2978     Zr2986   2.433       .  S
O2978      C2993   1.281       .  A
O2979     Zr2984   2.446       .  S
O2979     Zr2986   2.403       .  S
O2980     Zr2985   2.368       .  S
O2980     Zr2986   2.375       .  S
O2980      H3015   0.964       .  S
O2981     Zr2984   2.426       .  S
O2981     Zr3001   2.370       .  S
O2981      H3018   0.961       .  S
O2982     Zr2985   2.400       .  S
O2982     Zr3001   2.388       .  S
Zr2983     O3008   2.447       .  S
Zr2983     O3002   2.435       .  S
Zr2983     O3010   2.414       .  S
Zr2983     O2998   2.330       .  S
Zr2983     O2989   2.397       .  S
Zr2983     O2990   2.430       .  S
Zr2983     O2991   2.391       .  S
Zr2983     O2992   2.379       .  S
Zr2984     O3003   2.438       .  S
Zr2984     O2996   2.433       .  S
Zr2984     O2997   2.718       .  S
Zr2984     O2990   2.412       .  S
Zr2984     O2991   2.381       .  S
Zr2985     O2987   2.436       .  S
Zr2985     O3009   2.437       .  S
Zr2985     O3011   2.428       .  S
Zr2985     O2989   2.393       .  S
Zr2985     O2992   2.384       .  S
Zr2986     O3012   2.436       .  S
Zr2986     O3013   2.439       .  S
Zr2986     O2988   2.437       .  S
Zr2986     O2989   2.420       .  S
Zr2986     O2990   2.381       .  S
O2987      H3024   0.991       .  S
O2988      H3019   0.990       .  S
O2988      H3033   0.989       .  S
O2990      H3016   0.966       .  S
O2991     Zr3001   2.381       .  S
O2992     Zr3001   2.346       .  S
O2992      H3017   0.965       .  S
C2993      C3621   1.489       .  S
C2994      C3538   1.474       .  S
C2995      C3186   1.568       .  S
O2996      H3032   0.990       .  S
O2997      C2999   1.343       .  A
O2998      C2999   1.261       .  A
C2999      C3218   1.569       .  S
O3000     Zr3001   2.436       .  S
O3000      H3029   0.990       .  S
Zr3001     O3004   2.434       .  S
Zr3001     O3005   2.438       .  S
Zr3001     O3006   2.423       .  S
O3002      C3007   1.278       .  A
O3003      H3020   0.990       .  S
O3003      H3035   0.990       .  S
O3004      H3021   0.990       .  S
O3005      H3025   0.990       .  S
O3005      H3034   0.990       .  S
O3006      C3007   1.275       .  A
C3007      C5157   1.460       .  S
O3008      H3027   0.990       .  S
O3008      H3031   0.991       .  S
O3009      H3023   0.990       .  S
O3009      H3030   0.990       .  S
O3010      C3014   1.277       .  A
O3011      C3014   1.285       .  A
O3012      H3022   0.990       .  S
O3013      H3026   0.990       .  S
C3014      C5349   1.479       .  S
Zr3037     O3038   2.451       .  S
Zr3037     O3039   2.450       .  S
Zr3037     O3040   2.417       .  S
Zr3037     O3043   2.433       .  S
Zr3037     O3045   2.402       .  S
Zr3037     O3046   2.389       .  S
Zr3037     O3047   2.425       .  S
Zr3037     O3048   2.399       .  S
O3038      H3094   0.991       .  S
O3038      H3102   0.989       .  S
O3039      C3059   1.283       .  A
O3040      C3061   1.278       .  A
O3041     Zr3051   2.410       .  S
O3041      C3060   1.277       .  A
O3042     Zr3050   2.684       .  S
O3042      C3061   1.337       .  A
O3043      C3060   1.284       .  A
O3044     Zr3052   2.402       .  S
O3044      C3059   1.276       .  A
O3045     Zr3050   2.439       .  S
O3045     Zr3052   2.396       .  S
O3046     Zr3051   2.388       .  S
O3046     Zr3052   2.389       .  S
O3046      H3081   0.965       .  S
O3047     Zr3050   2.421       .  S
O3047     Zr3067   2.365       .  S
O3047      H3084   0.962       .  S
O3048     Zr3051   2.399       .  S
O3048     Zr3067   2.385       .  S
Zr3049     O3074   2.440       .  S
Zr3049     O3068   2.404       .  S
Zr3049     O3076   2.409       .  S
Zr3049     O3064   2.318       .  S
Zr3049     O3055   2.378       .  S
Zr3049     O3056   2.412       .  S
Zr3049     O3057   2.395       .  S
Zr3049     O3058   2.368       .  S
Zr3050     O3069   2.435       .  S
Zr3050     O3062   2.435       .  S
Zr3050     O3063   2.703       .  S
Zr3050     O3056   2.425       .  S
Zr3050     O3057   2.388       .  S
Zr3051     O3053   2.435       .  S
Zr3051     O3075   2.436       .  S
Zr3051     O3077   2.441       .  S
Zr3051     O3055   2.379       .  S
Zr3051     O3058   2.376       .  S
Zr3052     O3078   2.439       .  S
Zr3052     O3079   2.438       .  S
Zr3052     O3054   2.436       .  S
Zr3052     O3055   2.405       .  S
Zr3052     O3056   2.381       .  S
O3053      H3090   0.990       .  S
O3054      H3085   0.990       .  S
O3054      H3099   0.990       .  S
O3056      H3082   0.966       .  S
O3057     Zr3067   2.370       .  S
O3058     Zr3067   2.345       .  S
O3058      H3083   0.965       .  S
C3059      C4069   1.480       .  S
C3060      C4197   1.469       .  S
C3061      C3170   1.583       .  S
O3062      H3098   0.990       .  S
O3063      C3065   1.343       .  A
O3064      C3065   1.262       .  A
C3065      C3189   1.559       .  S
O3066     Zr3067   2.436       .  S
O3066      H3095   0.990       .  S
Zr3067     O3070   2.435       .  S
Zr3067     O3071   2.442       .  S
Zr3067     O3072   2.406       .  S
O3068      C3073   1.276       .  A
O3069      H3086   0.990       .  S
O3069      H3101   0.990       .  S
O3070      H3087   0.990       .  S
O3071      H3091   0.990       .  S
O3071      H3100   0.990       .  S
O3072      C3073   1.281       .  A
C3073      C3493   1.449       .  S
O3074      H3093   0.989       .  S
O3074      H3097   0.991       .  S
O3075      H3089   0.988       .  S
O3075      H3096   0.991       .  S
O3076      C3080   1.277       .  A
O3077      C3080   1.288       .  A
O3078      H3088   0.991       .  S
O3079      H3092   0.990       .  S
C3080      C3669   1.484       .  S
Zr3103     O3104   2.447       .  S
Zr3103     O3105   2.452       .  S
Zr3103     O3106   2.420       .  S
Zr3103     O3109   2.430       .  S
Zr3103     O3111   2.398       .  S
Zr3103     O3112   2.379       .  S
Zr3103     O3113   2.430       .  S
Zr3103     O3114   2.393       .  S
O3104      H3160   0.990       .  S
O3104      H3168   0.989       .  S
O3105      C3125   1.285       .  A
O3106      C3127   1.279       .  A
O3107     Zr3117   2.415       .  S
O3107      C3126   1.279       .  A
O3108     Zr3116   2.650       .  S
O3108      C3127   1.329       .  A
O3109      C3126   1.284       .  A
O3110     Zr3118   2.425       .  S
O3110      C3125   1.281       .  A
O3111     Zr3116   2.440       .  S
O3111     Zr3118   2.396       .  S
O3112     Zr3117   2.382       .  S
O3112     Zr3118   2.376       .  S
O3112      H3147   0.965       .  S
O3113     Zr3116   2.433       .  S
O3113     Zr3133   2.379       .  S
O3113      H3150   0.964       .  S
O3114     Zr3117   2.394       .  S
O3114     Zr3133   2.376       .  S
Zr3115     O3140   2.447       .  S
Zr3115     O3134   2.450       .  S
Zr3115     O3142   2.411       .  S
Zr3115     O3130   2.336       .  S
Zr3115     O3121   2.398       .  S
Zr3115     O3122   2.443       .  S
Zr3115     O3123   2.382       .  S
Zr3115     O3124   2.373       .  S
Zr3116     O3135   2.435       .  S
Zr3116     O3128   2.433       .  S
Zr3116     O3129   2.716       .  S
Zr3116     O3122   2.405       .  S
Zr3116     O3123   2.368       .  S
Zr3117     O3119   2.436       .  S
Zr3117     O3141   2.435       .  S
Zr3117     O3143   2.420       .  S
Zr3117     O3121   2.393       .  S
Zr3117     O3124   2.390       .  S
Zr3118     O3144   2.436       .  S
Zr3118     O3145   2.436       .  S
Zr3118     O3120   2.437       .  S
Zr3118     O3121   2.420       .  S
Zr3118     O3122   2.385       .  S
O3119      H3156   0.991       .  S
O3120      H3151   0.991       .  S
O3120      H3165   0.989       .  S
O3122      H3148   0.962       .  S
O3123     Zr3133   2.370       .  S
O3124     Zr3133   2.365       .  S
O3124      H3149   0.966       .  S
C3125      C3237   1.490       .  S
C3126      C3349   1.470       .  S
C3127      C3205   1.566       .  S
O3128      H3164   0.990       .  S
O3129      C3131   1.340       .  A
O3130      C3131   1.257       .  A
C3131      C3173   1.576       .  S
O3132     Zr3133   2.438       .  S
O3132      H3161   0.990       .  S
Zr3133     O3136   2.435       .  S
Zr3133     O3137   2.441       .  S
Zr3133     O3138   2.409       .  S
O3134      C3139   1.281       .  A
O3135      H3152   0.991       .  S
O3135      H3167   0.990       .  S
O3136      H3153   0.990       .  S
O3137      H3157   0.990       .  S
O3137      H3166   0.990       .  S
O3138      C3139   1.280       .  A
C3139      C4130   1.455       .  S
O3140      H3159   0.990       .  S
O3140      H3163   0.991       .  S
O3141      H3155   0.990       .  S
O3141      H3162   0.990       .  S
O3142      C3146   1.278       .  A
O3143      C3146   1.281       .  A
O3144      H3154   0.990       .  S
O3145      H3158   0.991       .  S
C3146      C4114   1.471       .  S
C3169      C3170   1.411       .  A
C3169      C3174   1.445       .  A
C3169      H3176   1.083       .  S
C3170      C3171   1.451       .  A
C3171      C3172   1.444       .  A
C3171      C3178   1.508       .  S
C3172      C3173   1.411       .  A
C3172      H3177   1.082       .  S
C3173      C3174   1.447       .  A
C3174      C3175   1.506       .  S
C3175      H3179   1.111       .  S
C3175      H3180   1.109       .  S
C3175      H3181   1.110       .  S
C3178      H3182   1.107       .  S
C3178      H3183   1.110       .  S
C3178      H3184   1.111       .  S
C3185      C3186   1.409       .  A
C3185      C3190   1.440       .  A
C3185      H3192   1.083       .  S
C3186      C3187   1.445       .  A
C3187      C3188   1.439       .  A
C3187      C3194   1.508       .  S
C3188      C3189   1.410       .  A
C3188      H3193   1.082       .  S
C3189      C3190   1.446       .  A
C3190      C3191   1.506       .  S
C3191      H3195   1.110       .  S
C3191      H3196   1.110       .  S
C3191      H3197   1.110       .  S
C3194      H3198   1.108       .  S
C3194      H3199   1.111       .  S
C3194      H3200   1.111       .  S
C3201      C3202   1.407       .  A
C3201      C3206   1.437       .  A
C3201      H3208   1.082       .  S
C3202      C3203   1.444       .  A
C3203      C3204   1.438       .  A
C3203      C3210   1.506       .  S
C3204      C3205   1.409       .  A
C3204      H3209   1.084       .  S
C3205      C3206   1.444       .  A
C3206      C3207   1.505       .  S
C3207      H3211   1.109       .  S
C3207      H3212   1.108       .  S
C3207      H3213   1.111       .  S
C3210      H3214   1.110       .  S
C3210      H3215   1.110       .  S
C3210      H3216   1.111       .  S
C3217      C3218   1.409       .  A
C3217      C3222   1.442       .  A
C3217      H3224   1.084       .  S
C3218      C3219   1.449       .  A
C3219      C3220   1.440       .  A
C3219      C3226   1.507       .  S
C3220      C3221   1.408       .  A
C3220      H3225   1.083       .  S
C3221      C3222   1.448       .  A
C3222      C3223   1.507       .  S
C3223      H3227   1.111       .  S
C3223      H3228   1.108       .  S
C3223      H3229   1.109       .  S
C3226      H3230   1.109       .  S
C3226      H3231   1.110       .  S
C3226      H3232   1.110       .  S
C3233      C3234   1.408       .  A
C3233      C3238   1.401       .  A
C3233      H3240   1.083       .  S
C3234      C3235   1.420       .  A
C3235      C3236   1.412       .  A
C3235      C3242   1.507       .  S
C3236      C3237   1.407       .  A
C3236      H3241   1.084       .  S
C3237      C3238   1.417       .  A
C3238      C3239   1.510       .  S
C3239      H3243   1.111       .  S
C3239      H3244   1.109       .  S
C3239      H3245   1.110       .  S
C3242      H3246   1.111       .  S
C3242      H3247   1.109       .  S
C3242      H3248   1.111       .  S
C3249      C3250   1.397       .  A
C3249      C3254   1.403       .  A
C3249      H3256   1.085       .  S
C3250      C3251   1.415       .  A
C3251      C3252   1.395       .  A
C3251      C3258   1.507       .  S
C3252      C3253   1.405       .  A
C3252      H3257   1.084       .  S
C3253      C3254   1.425       .  A
C3254      C3255   1.509       .  S
C3255      H3259   1.111       .  S
C3255      H3260   1.108       .  S
C3255      H3261   1.110       .  S
C3258      H3262   1.110       .  S
C3258      H3263   1.108       .  S
C3258      H3264   1.111       .  S
C3265      C3266   1.423   1_455  A
C3265      C3270   1.441       .  A
C3265      H3272   1.079       .  S
C3266      C3267   1.426       .  A
C3267      C3268   1.428       .  A
C3267      C3274   1.506       .  S
C3268      C3269   1.416   1_655  A
C3268      H3273   1.082       .  S
C3269      C3270   1.421       .  A
C3270      C3271   1.502       .  S
C3271      H3275   1.110       .  S
C3271      H3276   1.110       .  S
C3271      H3277   1.110       .  S
C3274      H3278   1.109       .  S
C3274      H3279   1.111       .  S
C3274      H3280   1.110       .  S
C3281      C3282   1.409       .  A
C3281      C3286   1.432       .  A
C3281      H3288   1.084       .  S
C3282      C3283   1.434   1_455  A
C3283      C3284   1.439       .  A
C3283      C3290   1.503       .  S
C3284      C3285   1.413   1_655  A
C3284      H3289   1.083       .  S
C3285      C3286   1.436       .  A
C3286      C3287   1.505       .  S
C3287      H3291   1.106       .  S
C3287      H3292   1.110       .  S
C3287      H3293   1.111       .  S
C3290      H3294   1.110       .  S
C3290      H3295   1.108       .  S
C3290      H3296   1.111       .  S
C3297      C3298   1.401       .  A
C3297      C3302   1.399       .  A
C3297      H3304   1.084       .  S
C3298      C3299   1.399       .  A
C3299      C3300   1.396       .  A
C3299      C3306   1.507       .  S
C3300      C3301   1.416       .  A
C3300      H3305   1.082       .  S
C3301      C3302   1.416       .  A
C3302      C3303   1.507       .  S
C3303      H3307   1.111       .  S
C3303      H3308   1.110       .  S
C3303      H3309   1.106       .  S
C3306      H3310   1.110       .  S
C3306      H3311   1.110       .  S
C3306      H3312   1.111       .  S
C3313      C3314   1.419   1_455  A
C3313      C3318   1.428       .  A
C3313      H3320   1.074       .  S
C3314      C3315   1.418       .  A
C3315      C3316   1.437       .  A
C3315      C3322   1.503       .  S
C3316      C3317   1.423   1_645  A
C3316      H3321   1.080   1_545  S
C3317      C3318   1.416   1_565  A
C3318      C3319   1.505   1_545  S
C3319      H3323   1.111   1_565  S
C3319      H3324   1.110       .  S
C3319      H3325   1.110       .  S
C3322      H3326   1.110       .  S
C3322      H3327   1.111       .  S
C3322      H3328   1.111       .  S
C3329      C3330   1.421   1_655  A
C3329      C3334   1.447       .  A
C3329      H3336   1.083       .  S
C3330      C3331   1.436       .  A
C3331      C3332   1.422       .  A
C3331      C3338   1.509       .  S
C3332      C3333   1.407       .  A
C3332      H3337   1.085       .  S
C3333      C3334   1.433   1_455  A
C3334      C3335   1.499       .  S
C3335      H3339   1.110       .  S
C3335      H3340   1.109       .  S
C3335      H3341   1.108       .  S
C3338      H3342   1.109       .  S
C3338      H3343   1.105       .  S
C3338      H3344   1.110       .  S
C3345      C3346   1.405       .  A
C3345      C3350   1.404       .  A
C3345      H3352   1.084       .  S
C3346      C3347   1.417       .  A
C3347      C3348   1.394       .  A
C3347      C3354   1.509       .  S
C3348      C3349   1.399       .  A
C3348      H3353   1.085       .  S
C3349      C3350   1.413       .  A
C3350      C3351   1.507       .  S
C3351      H3355   1.110       .  S
C3351      H3356   1.110       .  S
C3351      H3357   1.111       .  S
C3354      H3358   1.107       .  S
C3354      H3359   1.110       .  S
C3354      H3360   1.111       .  S
C3361      C3362   1.404       .  A
C3361      C3366   1.401       .  A
C3361      H3368   1.084       .  S
C3362      C3363   1.417       .  A
C3363      C3364   1.403       .  A
C3363      C3370   1.508       .  S
C3364      C3365   1.403       .  A
C3364      H3369   1.084       .  S
C3365      C3366   1.415       .  A
C3366      C3367   1.509       .  S
C3367      H3371   1.111       .  S
C3367      H3372   1.108       .  S
C3367      H3373   1.110       .  S
C3370      H3374   1.109       .  S
C3370      H3375   1.110       .  S
C3370      H3376   1.111       .  S
C3377      C3378   1.404       .  A
C3377      C3382   1.404       .  A
C3377      H3384   1.085       .  S
C3378      C3379   1.415       .  A
C3379      C3380   1.407       .  A
C3379      C3386   1.507       .  S
C3380      C3381   1.406       .  A
C3380      H3385   1.084       .  S
C3381      C3382   1.418       .  A
C3382      C3383   1.508       .  S
C3383      H3387   1.111       .  S
C3383      H3388   1.111       .  S
C3383      H3389   1.106       .  S
C3386      H3390   1.110       .  S
C3386      H3391   1.111       .  S
C3386      H3392   1.109       .  S
C3393      C3394   1.406       .  A
C3393      C3398   1.400       .  A
C3393      H3400   1.085       .  S
C3394      C3395   1.407       .  A
C3395      C3396   1.397       .  A
C3395      C3402   1.506       .  S
C3396      C3397   1.409       .  A
C3396      H3401   1.082       .  S
C3397      C3398   1.416       .  A
C3398      C3399   1.507       .  S
C3399      H3403   1.110       .  S
C3399      H3404   1.106       .  S
C3399      H3405   1.109       .  S
C3402      H3406   1.110       .  S
C3402      H3407   1.111       .  S
C3402      H3408   1.110       .  S
C3409      C3410   1.405       .  A
C3409      C3414   1.435       .  A
C3409      H3416   1.073       .  S
C3410      C3411   1.446       .  A
C3411      C3412   1.437       .  A
C3411      C3418   1.507       .  S
C3412      C3413   1.408       .  A
C3412      H3417   1.084       .  S
C3413      C3414   1.442       .  A
C3414      C3415   1.506       .  S
C3415      H3419   1.111       .  S
C3415      H3420   1.107       .  S
C3415      H3421   1.109       .  S
C3418      H3422   1.109       .  S
C3418      H3423   1.110       .  S
C3418      H3424   1.111       .  S
C3425      C3426   1.399       .  A
C3425      C3430   1.391       .  A
C3425      H3432   1.084       .  S
C3426      C3427   1.416       .  A
C3427      C3428   1.404       .  A
C3427      C3434   1.506       .  S
C3428      C3429   1.402       .  A
C3428      H3433   1.084       .  S
C3429      C3430   1.414       .  A
C3430      C3431   1.506       .  S
C3431      H3435   1.110       .  S
C3431      H3436   1.109       .  S
C3431      H3437   1.104       .  S
C3434      H3438   1.110       .  S
C3434      H3439   1.110       .  S
C3434      H3440   1.109       .  S
C3441      C3442   1.435       .  A
C3441      C3446   1.441       .  A
C3441      H3448   1.080       .  S
C3442      C3443   1.419       .  A
C3443      C3444   1.445       .  A
C3443      C3450   1.503       .  S
C3444      C3445   1.440       .  A
C3444      H3449   1.083       .  S
C3445      C3446   1.417       .  A
C3446      C3447   1.498       .  S
C3447      H3451   1.111       .  S
C3447      H3452   1.103       .  S
C3447      H3453   1.110       .  S
C3450      H3454   1.110       .  S
C3450      H3455   1.110       .  S
C3450      H3456   1.111       .  S
C3457      C3458   1.440       .  A
C3457      C3462   1.442       .  A
C3457      H3464   1.083       .  S
C3458      C3459   1.422       .  A
C3459      C3460   1.437       .  A
C3459      C3466   1.501       .  S
C3460      C3461   1.432       .  A
C3460      H3465   1.083       .  S
C3461      C3462   1.417       .  A
C3462      C3463   1.503       .  S
C3463      H3467   1.111       .  S
C3463      H3468   1.110       .  S
C3463      H3469   1.110       .  S
C3466      H3470   1.104       .  S
C3466      H3471   1.110       .  S
C3466      H3472   1.109       .  S
C3473      C3474   1.431       .  A
C3473      C3478   1.436       .  A
C3473      H3480   1.084       .  S
C3474      C3475   1.410       .  A
C3475      C3476   1.434       .  A
C3475      C3482   1.503       .  S
C3476      C3477   1.438       .  A
C3476      H3481   1.083       .  S
C3477      C3478   1.422       .  A
C3478      C3479   1.502       .  S
C3479      H3483   1.108       .  S
C3479      H3484   1.105       .  S
C3479      H3485   1.110       .  S
C3482      H3486   1.110       .  S
C3482      H3487   1.110       .  S
C3482      H3488   1.110       .  S
C3489      C3490   1.408       .  A
C3489      C3494   1.388       .  A
C3489      H3496   1.084       .  S
C3490      C3491   1.410       .  A
C3491      C3492   1.401       .  A
C3491      C3498   1.506       .  S
C3492      C3493   1.403       .  A
C3492      H3497   1.082       .  S
C3493      C3494   1.402       .  A
C3494      C3495   1.508       .  S
C3495      H3499   1.111       .  S
C3495      H3500   1.108       .  S
C3495      H3501   1.110       .  S
C3498      H3502   1.110       .  S
C3498      H3503   1.108       .  S
C3498      H3504   1.111       .  S
C3505      C3506   1.403       .  A
C3505      C3510   1.407       .  A
C3505      H3512   1.084       .  S
C3506      C3507   1.416       .  A
C3507      C3508   1.396       .  A
C3507      C3514   1.511       .  S
C3508      C3509   1.403       .  A
C3508      H3513   1.084       .  S
C3509      C3510   1.418       .  A
C3510      C3511   1.507       .  S
C3511      H3515   1.111       .  S
C3511      H3516   1.111       .  S
C3511      H3517   1.110       .  S
C3514      H3518   1.109       .  S
C3514      H3519   1.107       .  S
C3514      H3520   1.111       .  S
C3521      C3522   1.404       .  A
C3521      C3526   1.404       .  A
C3521      H3528   1.084       .  S
C3522      C3523   1.423       .  A
C3523      C3524   1.410       .  A
C3523      C3530   1.507       .  S
C3524      C3525   1.404       .  A
C3524      H3529   1.085       .  S
C3525      C3526   1.420       .  A
C3526      C3527   1.507       .  S
C3527      H3531   1.111       .  S
C3527      H3532   1.108       .  S
C3527      H3533   1.110       .  S
C3530      H3534   1.108       .  S
C3530      H3535   1.111       .  S
C3530      H3536   1.111       .  S
C3537      C3538   1.402       .  A
C3537      C3542   1.400       .  A
C3537      H3544   1.085       .  S
C3538      C3539   1.412       .  A
C3539      C3540   1.402       .  A
C3539      C3546   1.508       .  S
C3540      C3541   1.407       .  A
C3540      H3545   1.084       .  S
C3541      C3542   1.418       .  A
C3542      C3543   1.508       .  S
C3543      H3547   1.111       .  S
C3543      H3548   1.110       .  S
C3543      H3549   1.110       .  S
C3546      H3550   1.109       .  S
C3546      H3551   1.110       .  S
C3546      H3552   1.111       .  S
C3553      C3554   1.415       .  A
C3553      C3558   1.397       .  A
C3553      H3560   1.083       .  S
C3554      C3555   1.418       .  A
C3555      C3556   1.398       .  A
C3555      C3562   1.508       .  S
C3556      C3557   1.399       .  A
C3556      H3561   1.084       .  S
C3557      C3558   1.401       .  A
C3558      C3559   1.507       .  S
C3559      H3563   1.110       .  S
C3559      H3564   1.111       .  S
C3559      H3565   1.109       .  S
C3562      H3566   1.110       .  S
C3562      H3567   1.107       .  S
C3562      H3568   1.111       .  S
C3569      C3570   1.422       .  A
C3569      C3574   1.437       .  A
C3569      H3576   1.080       .  S
C3570      C3571   1.421       .  A
C3571      C3572   1.433       .  A
C3571      C3578   1.505       .  S
C3572      C3573   1.420       .  A
C3572      H3577   1.084       .  S
C3573      C3574   1.420       .  A
C3574      C3575   1.503       .  S
C3575      H3579   1.111       .  S
C3575      H3580   1.110       .  S
C3575      H3581   1.111       .  S
C3578      H3582   1.111       .  S
C3578      H3583   1.110       .  S
C3578      H3584   1.111       .  S
C3585      C3586   1.402       .  A
C3585      C3590   1.398       .  A
C3585      H3592   1.085       .  S
C3586      C3587   1.412       .  A
C3587      C3588   1.402       .  A
C3587      C3594   1.508       .  S
C3588      C3589   1.406       .  A
C3588      H3593   1.084       .  S
C3589      C3590   1.417       .  A
C3590      C3591   1.508       .  S
C3591      H3595   1.108       .  S
C3591      H3596   1.109       .  S
C3591      H3597   1.111       .  S
C3594      H3598   1.108       .  S
C3594      H3599   1.111       .  S
C3594      H3600   1.111       .  S
C3601      C3602   1.408       .  A
C3601      C3606   1.424       .  A
C3601      H3608   1.084       .  S
C3602      C3603   1.433       .  A
C3603      C3604   1.444       .  A
C3603      C3610   1.500       .  S
C3604      C3605   1.417       .  A
C3604      H3609   1.083       .  S
C3605      C3606   1.432       .  A
C3606      C3607   1.504       .  S
C3607      H3611   1.111       .  S
C3607      H3612   1.110       .  S
C3607      H3613   1.109       .  S
C3610      H3614   1.108       .  S
C3610      H3615   1.110       .  S
C3610      H3616   1.109       .  S
C3617      C3618   1.409       .  A
C3617      C3622   1.412       .  A
C3617      H3624   1.084       .  S
C3618      C3619   1.418       .  A
C3619      C3620   1.405       .  A
C3619      C3626   1.510       .  S
C3620      C3621   1.406       .  A
C3620      H3625   1.085       .  S
C3621      C3622   1.413       .  A
C3622      C3623   1.505       .  S
C3623      H3627   1.111       .  S
C3623      H3628   1.109       .  S
C3623      H3629   1.110       .  S
C3626      H3630   1.111       .  S
C3626      H3631   1.110       .  S
C3626      H3632   1.108       .  S
C3633      C3634   1.422       .  A
C3633      C3638   1.442       .  A
C3633      H3640   1.080       .  S
C3634      C3635   1.421       .  A
C3635      C3636   1.426       .  A
C3635      C3642   1.507       .  S
C3636      C3637   1.416       .  A
C3636      H3641   1.081       .  S
C3637      C3638   1.421       .  A
C3638      C3639   1.502       .  S
C3639      H3643   1.111       .  S
C3639      H3644   1.110   1_565  S
C3639      H3645   1.110   1_565  S
C3642      H3646   1.110       .  S
C3642      H3647   1.108       .  S
C3642      H3648   1.111       .  S
C3649      C3650   1.410       .  A
C3649      C3654   1.420       .  A
C3649      H3656   1.085       .  S
C3650      C3651   1.435       .  A
C3651      C3652   1.449       .  A
C3651      C3658   1.499       .  S
C3652      C3653   1.421       .  A
C3652      H3657   1.083       .  S
C3653      C3654   1.434       .  A
C3654      C3655   1.511       .  S
C3655      H3659   1.110       .  S
C3655      H3660   1.104       .  S
C3655      H3661   1.111       .  S
C3658      H3662   1.106       .  S
C3658      H3663   1.110       .  S
C3658      H3664   1.109       .  S
C3665      C3666   1.401       .  A
C3665      C3670   1.403       .  A
C3665      H3672   1.084       .  S
C3666      C3667   1.422       .  A
C3667      C3668   1.397       .  A
C3667      C3674   1.511       .  S
C3668      C3669   1.401       .  A
C3668      H3673   1.084       .  S
C3669      C3670   1.423       .  A
C3670      C3671   1.509       .  S
C3671      H3675   1.111       .  S
C3671      H3676   1.106       .  S
C3671      H3677   1.110       .  S
C3674      H3678   1.110       .  S
C3674      H3679   1.110       .  S
C3674      H3680   1.111       .  S
C3681      C3682   1.401       .  A
C3681      C3686   1.399       .  A
C3681      H3688   1.083       .  S
C3682      C3683   1.399       .  A
C3683      C3684   1.399       .  A
C3683      C3690   1.507       .  S
C3684      C3685   1.415       .  A
C3684      H3689   1.082       .  S
C3685      C3686   1.414       .  A
C3686      C3687   1.504   1_556  S
C3687      H3691   1.106       .  S
C3687      H3692   1.109       .  S
C3687      H3693   1.110   1_554  S
C3690      H3694   1.111       .  S
C3690      H3695   1.110       .  S
C3690      H3696   1.110       .  S
C3697      C3698   1.401       .  A
C3697      C3702   1.396       .  A
C3697      H3704   1.085       .  S
C3698      C3699   1.411       .  A
C3699      C3700   1.397       .  A
C3699      C3706   1.508       .  S
C3700      C3701   1.403       .  A
C3700      H3705   1.085       .  S
C3701      C3702   1.411       .  A
C3702      C3703   1.508       .  S
C3703      H3707   1.111       .  S
C3703      H3708   1.110       .  S
C3703      H3709   1.110       .  S
C3706      H3710   1.111       .  S
C3706      H3711   1.110       .  S
C3706      H3712   1.111       .  S
C3713      C3714   1.417   1_554  A
C3713      C3718   1.426       .  A
C3713      H3720   1.077       .  S
C3714      C3715   1.419       .  A
C3715      C3716   1.434       .  A
C3715      C3722   1.503       .  S
C3716      C3717   1.418   1_556  A
C3716      H3721   1.081       .  S
C3717      C3718   1.419       .  A
C3718      C3719   1.506       .  S
C3719      H3723   1.111       .  S
C3719      H3724   1.110       .  S
C3719      H3725   1.110       .  S
C3722      H3726   1.110       .  S
C3722      H3727   1.110       .  S
C3722      H3728   1.111       .  S
C3729      C3730   1.428   1_556  A
C3729      C3734   1.440       .  A
C3729      H3736   1.083       .  S
C3730      C3731   1.419       .  A
C3731      C3732   1.431       .  A
C3731      C3738   1.505       .  S
C3732      C3733   1.421       .  A
C3732      H3737   1.083       .  S
C3733      C3734   1.419   1_554  A
C3734      C3735   1.503       .  S
C3735      H3739   1.111       .  S
C3735      H3740   1.110       .  S
C3735      H3741   1.111       .  S
C3738      H3742   1.110       .  S
C3738      H3743   1.110       .  S
C3738      H3744   1.111       .  S
C3745      C3746   1.408       .  A
C3745      C3750   1.405       .  A
C3745      H3752   1.084       .  S
C3746      C3747   1.415       .  A
C3747      C3748   1.403       .  A
C3747      C3754   1.508       .  S
C3748      C3749   1.406       .  A
C3748      H3753   1.084       .  S
C3749      C3750   1.412       .  A
C3750      C3751   1.507       .  S
C3751      H3755   1.111       .  S
C3751      H3756   1.109       .  S
C3751      H3757   1.111       .  S
C3754      H3758   1.110       .  S
C3754      H3759   1.110       .  S
C3754      H3760   1.111       .  S
C3761      C3762   1.420   1_655  A
C3761      C3766   1.438       .  A
C3761      H3768   1.078   1_655  S
C3762      C3763   1.424   1_455  A
C3763      C3764   1.431       .  A
C3763      C3770   1.505   1_655  S
C3764      C3765   1.419       .  A
C3764      H3769   1.083       .  S
C3765      C3766   1.422       .  A
C3766      C3767   1.503       .  S
C3767      H3771   1.111   1_554  S
C3767      H3772   1.110       .  S
C3767      H3773   1.111   1_554  S
C3770      H3774   1.109       .  S
C3770      H3775   1.110       .  S
C3770      H3776   1.111   1_455  S
C3777      C3778   1.407       .  A
C3777      C3782   1.414       .  A
C3777      H3784   1.085       .  S
C3778      C3779   1.433       .  A
C3779      C3780   1.445       .  A
C3779      C3786   1.501       .  S
C3780      C3781   1.419       .  A
C3780      H3785   1.083       .  S
C3781      C3782   1.434       .  A
C3782      C3783   1.508       .  S
C3783      H3787   1.109       .  S
C3783      H3788   1.110   1_554  S
C3783      H3789   1.102       .  S
C3786      H3790   1.110       .  S
C3786      H3791   1.107       .  S
C3786      H3792   1.110       .  S
C3793      C3794   1.401       .  A
C3793      C3798   1.396       .  A
C3793      H3800   1.085       .  S
C3794      C3795   1.418       .  A
C3795      C3796   1.400       .  A
C3795      C3802   1.509       .  S
C3796      C3797   1.404       .  A
C3796      H3801   1.084       .  S
C3797      C3798   1.418       .  A
C3798      C3799   1.507       .  S
C3799      H3803   1.110       .  S
C3799      H3804   1.111       .  S
C3799      H3805   1.109       .  S
C3802      H3806   1.110       .  S
C3802      H3807   1.109       .  S
C3802      H3808   1.111       .  S
C3809      C3810   1.395       .  A
C3809      C3814   1.396       .  A
C3809      H3816   1.085       .  S
C3810      C3811   1.417       .  A
C3811      C3812   1.398       .  A
C3811      C3818   1.508       .  S
C3812      C3813   1.400       .  A
C3812      H3817   1.085       .  S
C3813      C3814   1.420       .  A
C3814      C3815   1.504       .  S
C3815      H3819   1.111       .  S
C3815      H3820   1.102       .  S
C3815      H3821   1.107       .  S
C3818      H3822   1.110       .  S
C3818      H3823   1.109       .  S
C3818      H3824   1.111       .  S
C3825      C3826   1.404       .  A
C3825      C3830   1.400       .  A
C3825      H3832   1.084       .  S
C3826      C3827   1.422       .  A
C3827      C3828   1.402       .  A
C3827      C3834   1.511       .  S
C3828      C3829   1.402       .  A
C3828      H3833   1.082       .  S
C3829      C3830   1.409       .  A
C3830      C3831   1.497       .  S
C3831      H3835   1.111       .  S
C3831      H3836   1.110       .  S
C3831      H3837   1.099       .  S
C3834      H3838   1.111       .  S
C3834      H3839   1.110       .  S
C3834      H3840   1.108       .  S
C3841      C3842   1.405       .  A
C3841      C3846   1.392       .  A
C3841      H3848   1.083       .  S
C3842      C3843   1.423       .  A
C3843      C3844   1.402       .  A
C3843      C3850   1.508       .  S
C3844      C3845   1.399       .  A
C3844      H3849   1.082       .  S
C3845      C3846   1.409       .  A
C3846      C3847   1.506       .  S
C3847      H3851   1.111       .  S
C3847      H3852   1.111       .  S
C3847      H3853   1.110       .  S
C3850      H3854   1.106       .  S
C3850      H3855   1.106       .  S
C3850      H3856   1.111       .  S
C3857      C3858   1.433       .  A
C3857      C3862   1.455       .  A
C3857      H3864   1.083       .  S
C3858      C3859   1.415       .  A
C3859      C3860   1.428       .  A
C3859      C3866   1.507       .  S
C3860      C3861   1.431       .  A
C3860      H3865   1.080       .  S
C3861      C3862   1.426       .  A
C3862      C3863   1.500       .  S
C3863      H3867   1.111       .  S
C3863      H3868   1.110       .  S
C3863      H3869   1.110       .  S
C3866      H3870   1.110       .  S
C3866      H3871   1.110       .  S
C3866      H3872   1.109       .  S
C3873      C3874   1.399       .  A
C3873      C3878   1.402       .  A
C3873      H3880   1.084       .  S
C3874      C3875   1.422       .  A
C3875      C3876   1.403       .  A
C3875      C3882   1.509       .  S
C3876      C3877   1.397       .  A
C3876      H3881   1.084       .  S
C3877      C3878   1.412       .  A
C3878      C3879   1.505       .  S
C3879      H3883   1.111       .  S
C3879      H3884   1.108       .  S
C3879      H3885   1.110       .  S
C3882      H3886   1.107       .  S
C3882      H3887   1.108       .  S
C3882      H3888   1.111       .  S
C3889      C3890   1.433       .  A
C3889      C3894   1.435       .  A
C3889      H3896   1.084       .  S
C3890      C3891   1.421       .  A
C3891      C3892   1.442       .  A
C3891      C3898   1.505       .  S
C3892      C3893   1.428       .  A
C3892      H3897   1.079       .  S
C3893      C3894   1.416       .  A
C3894      C3895   1.504       .  S
C3895      H3899   1.110       .  S
C3895      H3900   1.110       .  S
C3895      H3901   1.110       .  S
C3898      H3902   1.111       .  S
C3898      H3903   1.108       .  S
C3898      H3904   1.109       .  S
C3905      C3906   1.432       .  A
C3905      C3910   1.444   1_565  A
C3905      H3912   1.082       .  S
C3906      C3907   1.412       .  A
C3907      C3908   1.436   1_565  A
C3907      C3914   1.504       .  S
C3908      C3909   1.437       .  A
C3908      H3913   1.082       .  S
C3909      C3910   1.422       .  A
C3910      C3911   1.502       .  S
C3911      H3915   1.111       .  S
C3911      H3916   1.110       .  S
C3911      H3917   1.110       .  S
C3914      H3918   1.111       .  S
C3914      H3919   1.110       .  S
C3914      H3920   1.110       .  S
C3921      C3922   1.410       .  A
C3921      C3926   1.442       .  A
C3921      H3928   1.083       .  S
C3922      C3923   1.447       .  A
C3923      C3924   1.438       .  A
C3923      C3930   1.504       .  S
C3924      C3925   1.404       .  A
C3924      H3929   1.082       .  S
C3925      C3926   1.445       .  A
C3926      C3927   1.506       .  S
C3927      H3931   1.111       .  S
C3927      H3932   1.109       .  S
C3927      H3933   1.110       .  S
C3930      H3934   1.104       .  S
C3930      H3935   1.102       .  S
C3930      H3936   1.110       .  S
C3937      C3938   1.402       .  A
C3937      C3942   1.403       .  A
C3937      H3944   1.081       .  S
C3938      C3939   1.421       .  A
C3939      C3940   1.393       .  A
C3939      C3946   1.508       .  S
C3940      C3941   1.400       .  A
C3940      H3945   1.083       .  S
C3941      C3942   1.419       .  A
C3942      C3943   1.504       .  S
C3943      H3947   1.110       .  S
C3943      H3948   1.105       .  S
C3943      H3949   1.102       .  S
C3946      H3950   1.111       .  S
C3946      H3951   1.105       .  S
C3946      H3952   1.111       .  S
C3953      C3954   1.413       .  A
C3953      C3958   1.406       .  A
C3953      H3960   1.084       .  S
C3954      C3955   1.416       .  A
C3955      C3956   1.402       .  A
C3955      C3962   1.509       .  S
C3956      C3957   1.406       .  A
C3956      H3961   1.083       .  S
C3957      C3958   1.408       .  A
C3958      C3959   1.506       .  S
C3959      H3963   1.111       .  S
C3959      H3964   1.110       .  S
C3959      H3965   1.111       .  S
C3962      H3966   1.109       .  S
C3962      H3967   1.104       .  S
C3962      H3968   1.111       .  S
C3969      C3970   1.405       .  A
C3969      C3974   1.407       .  A
C3969      H3976   1.084       .  S
C3970      C3971   1.411       .  A
C3971      C3972   1.394       .  A
C3971      C3978   1.510       .  S
C3972      C3973   1.404       .  A
C3972      H3977   1.085       .  S
C3973      C3974   1.413       .  A
C3974      C3975   1.506       .  S
C3975      H3979   1.111       .  S
C3975      H3980   1.109       .  S
C3975      H3981   1.111       .  S
C3978      H3982   1.109       .  S
C3978      H3983   1.110       .  S
C3978      H3984   1.111       .  S
C3985      C3986   1.432       .  A
C3985      C3990   1.442       .  A
C3985      H3992   1.084       .  S
C3986      C3987   1.421   1_655  A
C3987      C3988   1.442       .  A
C3987      C3994   1.501       .  S
C3988      C3989   1.426   1_455  A
C3988      H3993   1.079       .  S
C3989      C3990   1.419       .  A
C3990      C3991   1.503       .  S
C3991      H3995   1.110       .  S
C3991      H3996   1.110       .  S
C3991      H3997   1.110       .  S
C3994      H3998   1.105       .  S
C3994      H3999   1.110       .  S
C3994      H4000   1.110       .  S
C4001      C4002   1.399   1_655  A
C4001      C4006   1.401   1_655  A
C4001      H4008   1.085       .  S
C4002      C4003   1.408       .  A
C4003      C4004   1.392       .  A
C4003      C4010   1.506       .  S
C4004      C4005   1.406       .  A
C4004      H4009   1.084       .  S
C4005      C4006   1.425       .  A
C4006      C4007   1.512   1_455  S
C4007      H4011   1.111       .  S
C4007      H4012   1.110   1_655  S
C4007      H4013   1.108       .  S
C4010      H4014   1.111       .  S
C4010      H4015   1.104       .  S
C4010      H4016   1.110       .  S
C4017      C4018   1.435       .  A
C4017      C4022   1.463       .  A
C4017      H4024   1.080       .  S
C4018      C4019   1.423       .  A
C4019      C4020   1.427       .  A
C4019      C4026   1.507   1_455  S
C4020      C4021   1.427       .  A
C4020      H4025   1.079   1_455  S
C4021      C4022   1.434       .  A
C4022      C4023   1.500       .  S
C4023      H4027   1.111       .  S
C4023      H4028   1.110       .  S
C4023      H4029   1.109       .  S
C4026      H4030   1.108       .  S
C4026      H4031   1.109   1_655  S
C4026      H4032   1.111   1_655  S
C4033      C4034   1.406   1_455  A
C4033      C4038   1.443   1_565  A
C4033      H4040   1.079       .  S
C4034      C4035   1.449   1_565  A
C4035      C4036   1.441       .  A
C4035      C4042   1.507   1_545  S
C4036      C4037   1.407       .  A
C4036      H4041   1.083       .  S
C4037      C4038   1.442   1_655  A
C4038      C4039   1.498       .  S
C4039      H4043   1.110       .  S
C4039      H4044   1.106   1_455  S
C4039      H4045   1.107       .  S
C4042      H4046   1.109       .  S
C4042      H4047   1.109       .  S
C4042      H4048   1.111   1_565  S
C4049      C4050   1.412       .  A
C4049      C4054   1.444       .  A
C4049      H4056   1.083       .  S
C4050      C4051   1.443       .  A
C4051      C4052   1.443       .  A
C4051      C4058   1.502   1_455  S
C4052      C4053   1.412       .  A
C4052      H4057   1.084   1_455  S
C4053      C4054   1.443       .  A
C4054      C4055   1.505       .  S
C4055      H4059   1.110       .  S
C4055      H4060   1.109       .  S
C4055      H4061   1.110       .  S
C4058      H4062   1.109       .  S
C4058      H4063   1.107       .  S
C4058      H4064   1.111       .  S
C4065      C4066   1.408       .  A
C4065      C4070   1.400       .  A
C4065      H4072   1.084       .  S
C4066      C4067   1.421       .  A
C4067      C4068   1.405       .  A
C4067      C4074   1.508       .  S
C4068      C4069   1.404       .  A
C4068      H4073   1.084       .  S
C4069      C4070   1.415       .  A
C4070      C4071   1.508       .  S
C4071      H4075   1.111       .  S
C4071      H4076   1.108       .  S
C4071      H4077   1.109       .  S
C4074      H4078   1.110       .  S
C4074      H4079   1.110       .  S
C4074      H4080   1.111       .  S
C4081      C4082   1.397       .  A
C4081      C4086   1.398   1_545  A
C4081      H4088   1.082       .  S
C4082      C4083   1.414       .  A
C4083      C4084   1.397       .  A
C4083      C4090   1.507       .  S
C4084      C4085   1.402   1_545  A
C4084      H4089   1.084       .  S
C4085      C4086   1.415       .  A
C4086      C4087   1.506       .  S
C4087      H4091   1.109       .  S
C4087      H4092   1.111       .  S
C4087      H4093   1.109       .  S
C4090      H4094   1.107       .  S
C4090      H4095   1.111       .  S
C4090      H4096   1.110       .  S
C4097      C4098   1.406       .  A
C4097      C4102   1.402       .  A
C4097      H4104   1.085       .  S
C4098      C4099   1.396       .  A
C4099      C4100   1.389       .  A
C4099      C4106   1.503       .  S
C4100      C4101   1.417       .  A
C4100      H4105   1.082       .  S
C4101      C4102   1.417       .  A
C4102      C4103   1.501       .  S
C4103      H4107   1.111       .  S
C4103      H4108   1.108       .  S
C4103      H4109   1.100       .  S
C4106      H4110   1.111       .  S
C4106      H4111   1.110       .  S
C4106      H4112   1.110       .  S
C4113      C4114   1.406       .  A
C4113      C4118   1.399       .  A
C4113      H4120   1.084       .  S
C4114      C4115   1.409       .  A
C4115      C4116   1.397       .  A
C4115      C4122   1.505       .  S
C4116      C4117   1.407       .  A
C4116      H4121   1.085       .  S
C4117      C4118   1.411       .  A
C4118      C4119   1.502       .  S
C4119      H4123   1.111       .  S
C4119      H4124   1.105       .  S
C4119      H4125   1.106       .  S
C4122      H4126   1.110       .  S
C4122      H4127   1.110       .  S
C4122      H4128   1.111       .  S
C4129      C4130   1.391       .  A
C4129      C4134   1.395       .  A
C4129      H4136   1.085       .  S
C4130      C4131   1.415       .  A
C4131      C4132   1.393       .  A
C4131      C4138   1.500       .  S
C4132      C4133   1.395       .  A
C4132      H4137   1.084       .  S
C4133      C4134   1.423       .  A
C4134      C4135   1.502       .  S
C4135      H4139   1.110       .  S
C4135      H4140   1.110       .  S
C4135      H4141   1.103       .  S
C4138      H4142   1.110       .  S
C4138      H4143   1.101       .  S
C4138      H4144   1.111       .  S
C4145      C4146   1.399       .  A
C4145      C4150   1.410       .  A
C4145      H4152   1.084       .  S
C4146      C4147   1.414       .  A
C4147      C4148   1.400       .  A
C4147      C4154   1.504       .  S
C4148      C4149   1.401       .  A
C4148      H4153   1.084       .  S
C4149      C4150   1.428       .  A
C4150      C4151   1.508       .  S
C4151      H4155   1.111       .  S
C4151      H4156   1.109       .  S
C4151      H4157   1.111       .  S
C4154      H4158   1.108       .  S
C4154      H4159   1.111       .  S
C4154      H4160   1.111       .  S
C4161      C4162   1.420       .  A
C4161      C4166   1.430       .  A
C4161      H4168   1.082       .  S
C4162      C4163   1.419   1_545  A
C4163      C4164   1.443       .  A
C4163      C4170   1.502       .  S
C4164      C4165   1.426   1_565  A
C4164      H4169   1.080       .  S
C4165      C4166   1.421       .  A
C4166      C4167   1.506       .  S
C4167      H4171   1.111       .  S
C4167      H4172   1.110       .  S
C4167      H4173   1.110       .  S
C4170      H4174   1.111       .  S
C4170      H4175   1.110       .  S
C4170      H4176   1.110       .  S
C4177      C4178   1.392   1_545  A
C4177      C4182   1.397   1_545  A
C4177      H4184   1.076       .  S
C4178      C4179   1.409       .  A
C4179      C4180   1.402       .  A
C4179      C4186   1.507       .  S
C4180      C4181   1.410       .  A
C4180      H4185   1.084       .  S
C4181      C4182   1.424       .  A
C4182      C4183   1.510   1_565  S
C4183      H4187   1.111       .  S
C4183      H4188   1.109   1_545  S
C4183      H4189   1.110   1_545  S
C4186      H4190   1.110       .  S
C4186      H4191   1.110       .  S
C4186      H4192   1.111       .  S
C4193      C4194   1.400       .  A
C4193      C4198   1.399       .  A
C4193      H4200   1.084       .  S
C4194      C4195   1.410       .  A
C4195      C4196   1.396       .  A
C4195      C4202   1.508       .  S
C4196      C4197   1.403       .  A
C4196      H4201   1.084       .  S
C4197      C4198   1.415       .  A
C4198      C4199   1.508       .  S
C4199      H4203   1.111       .  S
C4199      H4204   1.110       .  S
C4199      H4205   1.107       .  S
C4202      H4206   1.110       .  S
C4202      H4207   1.110       .  S
C4202      H4208   1.111       .  S
C4209      C4210   1.398   1_545  A
C4209      C4214   1.406       .  A
C4209      H4216   1.085   1_545  S
C4210      C4211   1.409       .  A
C4211      C4212   1.391   1_565  A
C4211      C4218   1.504       .  S
C4212      C4213   1.406       .  A
C4212      H4217   1.084       .  S
C4213      C4214   1.426       .  A
C4214      C4215   1.508       .  S
C4215      H4219   1.110       .  S
C4215      H4220   1.110       .  S
C4215      H4221   1.106       .  S
C4218      H4222   1.110       .  S
C4218      H4223   1.108       .  S
C4218      H4224   1.108       .  S
C4225      C4226   1.418       .  A
C4225      C4230   1.430       .  A
C4225      H4232   1.077       .  S
C4226      C4227   1.421   1_565  A
C4227      C4228   1.439       .  A
C4227      C4234   1.503       .  S
C4228      C4229   1.422   1_545  A
C4228      H4233   1.076       .  S
C4229      C4230   1.421       .  A
C4230      C4231   1.505       .  S
C4231      H4235   1.110       .  S
C4231      H4236   1.110       .  S
C4231      H4237   1.111       .  S
C4234      H4238   1.110       .  S
C4234      H4239   1.111       .  S
C4234      H4240   1.111       .  S
C4241      C4242   1.403       .  A
C4241      C4246   1.406       .  A
C4241      H4248   1.084       .  S
C4242      C4243   1.400       .  A
C4243      C4244   1.394       .  A
C4243      C4250   1.502       .  S
C4244      C4245   1.411       .  A
C4244      H4249   1.082       .  S
C4245      C4246   1.425       .  A
C4246      C4247   1.507       .  S
C4247      H4251   1.111       .  S
C4247      H4252   1.109       .  S
C4247      H4253   1.106       .  S
C4250      H4254   1.111       .  S
C4250      H4255   1.109       .  S
C4250      H4256   1.110       .  S
C4257      C4258   1.410       .  A
C4257      C4262   1.402       .  A
C4257      H4264   1.084       .  S
C4258      C4259   1.419       .  A
C4259      C4260   1.403       .  A
C4259      C4266   1.508       .  S
C4260      C4261   1.403       .  A
C4260      H4265   1.085       .  S
C4261      C4262   1.407       .  A
C4262      C4263   1.506       .  S
C4263      H4267   1.111       .  S
C4263      H4268   1.110       .  S
C4263      H4269   1.110       .  S
C4266      H4270   1.110       .  S
C4266      H4271   1.105       .  S
C4266      H4272   1.111       .  S
C4273      C4274   1.419   1_565  A
C4273      C4278   1.431       .  A
C4273      H4280   1.082       .  S
C4274      C4275   1.423       .  A
C4275      C4276   1.444       .  A
C4275      C4282   1.502       .  S
C4276      C4277   1.423       .  A
C4276      H4281   1.079       .  S
C4277      C4278   1.423   1_545  A
C4278      C4279   1.506       .  S
C4279      H4283   1.111       .  S
C4279      H4284   1.110       .  S
C4279      H4285   1.110       .  S
C4282      H4286   1.110       .  S
C4282      H4287   1.110       .  S
C4282      H4288   1.111       .  S
C4289      C4290   1.418       .  A
C4289      C4294   1.438       .  A
C4289      H4296   1.081       .  S
C4290      C4291   1.424       .  A
C4291      C4292   1.435       .  A
C4291      C4298   1.505       .  S
C4292      C4293   1.418       .  A
C4292      H4297   1.081       .  S
C4293      C4294   1.425       .  A
C4294      C4295   1.504       .  S
C4295      H4299   1.110   1_545  S
C4295      H4300   1.111       .  S
C4295      H4301   1.110   1_545  S
C4298      H4302   1.111       .  S
C4298      H4303   1.110       .  S
C4298      H4304   1.110       .  S
C4305      C4306   1.399       .  A
C4305      C4310   1.405       .  A
C4305      H4312   1.085   1_545  S
C4306      C4307   1.408       .  A
C4307      C4308   1.397       .  A
C4307      C4314   1.508       .  S
C4308      C4309   1.407       .  A
C4308      H4313   1.084       .  S
C4309      C4310   1.424       .  A
C4310      C4311   1.509       .  S
C4311      H4315   1.111   1_545  S
C4311      H4316   1.105       .  S
C4311      H4317   1.110       .  S
C4314      H4318   1.109       .  S
C4314      H4319   1.110       .  S
C4314      H4320   1.111       .  S
C4321      C4322   1.406       .  A
C4321      C4326   1.404       .  A
C4321      H4328   1.084       .  S
C4322      C4323   1.411       .  A
C4323      C4324   1.399       .  A
C4323      C4330   1.505       .  S
C4324      C4325   1.412       .  A
C4324      H4329   1.084       .  S
C4325      C4326   1.417       .  A
C4326      C4327   1.508       .  S
C4327      H4331   1.107   1_655  S
C4327      H4332   1.111       .  S
C4327      H4333   1.110       .  S
C4330      H4334   1.104       .  S
C4330      H4335   1.110       .  S
C4330      H4336   1.110       .  S
C4337      C4338   1.404       .  A
C4337      C4342   1.405       .  A
C4337      H4344   1.084       .  S
C4338      C4339   1.418       .  A
C4339      C4340   1.401       .  A
C4339      C4346   1.508       .  S
C4340      C4341   1.400       .  A
C4340      H4345   1.085       .  S
C4341      C4342   1.413       .  A
C4342      C4343   1.507       .  S
C4343      H4347   1.111       .  S
C4343      H4348   1.110       .  S
C4343      H4349   1.110       .  S
C4346      H4350   1.109       .  S
C4346      H4351   1.111       .  S
C4346      H4352   1.111       .  S
C4353      C4354   1.397       .  A
C4353      C4358   1.403       .  A
C4353      H4360   1.084       .  S
C4354      C4355   1.413       .  A
C4355      C4356   1.391       .  A
C4355      C4362   1.507   1_655  S
C4356      C4357   1.398       .  A
C4356      H4361   1.084       .  S
C4357      C4358   1.421       .  A
C4358      C4359   1.506       .  S
C4359      H4363   1.111       .  S
C4359      H4364   1.110       .  S
C4359      H4365   1.107       .  S
C4362      H4366   1.106       .  S
C4362      H4367   1.108   1_455  S
C4362      H4368   1.111       .  S
C4369      C4370   1.407       .  A
C4369      C4374   1.411       .  A
C4369      H4376   1.084       .  S
C4370      C4371   1.420       .  A
C4371      C4372   1.405       .  A
C4371      C4378   1.509       .  S
C4372      C4373   1.404       .  A
C4372      H4377   1.085       .  S
C4373      C4374   1.418       .  A
C4374      C4375   1.507       .  S
C4375      H4379   1.111       .  S
C4375      H4380   1.109       .  S
C4375      H4381   1.110       .  S
C4378      H4382   1.107       .  S
C4378      H4383   1.110       .  S
C4378      H4384   1.111       .  S
C4385      C4386   1.406       .  A
C4385      C4390   1.401       .  A
C4385      H4392   1.084       .  S
C4386      C4387   1.412       .  A
C4387      C4388   1.394       .  A
C4387      C4394   1.507       .  S
C4388      C4389   1.402       .  A
C4388      H4393   1.085       .  S
C4389      C4390   1.410       .  A
C4390      C4391   1.507       .  S
C4391      H4395   1.111       .  S
C4391      H4396   1.109       .  S
C4391      H4397   1.110       .  S
C4394      H4398   1.109       .  S
C4394      H4399   1.108       .  S
C4394      H4400   1.111       .  S
C4401      C4402   1.402       .  A
C4401      C4406   1.397       .  A
C4401      H4408   1.084       .  S
C4402      C4403   1.421       .  A
C4403      C4404   1.393       .  A
C4403      C4410   1.511       .  S
C4404      C4405   1.397       .  A
C4404      H4409   1.085       .  S
C4405      C4406   1.416       .  A
C4406      C4407   1.509       .  S
C4407      H4411   1.111       .  S
C4407      H4412   1.110       .  S
C4407      H4413   1.110       .  S
C4410      H4414   1.110       .  S
C4410      H4415   1.109       .  S
C4410      H4416   1.112       .  S
C4417      C4418   1.437       .  A
C4417      C4422   1.441       .  A
C4417      H4424   1.084       .  S
C4418      C4419   1.417   1_556  A
C4419      C4420   1.437       .  A
C4419      C4426   1.500       .  S
C4420      C4421   1.433   1_554  A
C4420      H4425   1.083       .  S
C4421      C4422   1.416       .  A
C4422      C4423   1.502       .  S
C4423      H4427   1.111       .  S
C4423      H4428   1.110       .  S
C4423      H4429   1.110       .  S
C4426      H4430   1.103       .  S
C4426      H4431   1.110       .  S
C4426      H4432   1.111       .  S
C4433      C4434   1.409       .  A
C4433      C4438   1.410       .  A
C4433      H4440   1.084       .  S
C4434      C4435   1.416       .  A
C4435      C4436   1.397       .  A
C4435      C4442   1.511       .  S
C4436      C4437   1.408       .  A
C4436      H4441   1.083       .  S
C4437      C4438   1.419       .  A
C4438      C4439   1.507       .  S
C4439      H4443   1.110       .  S
C4439      H4444   1.110       .  S
C4439      H4445   1.111       .  S
C4442      H4446   1.108       .  S
C4442      H4447   1.110       .  S
C4442      H4448   1.111       .  S
C4449      C4450   1.392       .  A
C4449      C4454   1.398   1_556  A
C4449      H4456   1.085       .  S
C4450      C4451   1.415   1_556  A
C4451      C4452   1.390       .  A
C4451      C4458   1.502       .  S
C4452      C4453   1.395       .  A
C4452      H4457   1.085       .  S
C4453      C4454   1.424       .  A
C4454      C4455   1.505       .  S
C4455      H4459   1.111       .  S
C4455      H4460   1.109       .  S
C4455      H4461   1.104       .  S
C4458      H4462   1.109       .  S
C4458      H4463   1.101       .  S
C4458      H4464   1.110       .  S
C4465      C4466   1.406       .  A
C4465      C4470   1.395       .  A
C4465      H4472   1.083       .  S
C4466      C4467   1.427       .  A
C4467      C4468   1.406       .  A
C4467      C4474   1.510       .  S
C4468      C4469   1.400       .  A
C4468      H4473   1.085       .  S
C4469      C4470   1.411       .  A
C4470      C4471   1.509       .  S
C4471      H4475   1.111       .  S
C4471      H4476   1.111       .  S
C4471      H4477   1.108       .  S
C4474      H4478   1.108       .  S
C4474      H4479   1.110       .  S
C4474      H4480   1.111       .  S
C4481      C4482   1.409   1_556  A
C4481      C4486   1.436       .  A
C4481      H4488   1.083       .  S
C4482      C4483   1.441       .  A
C4483      C4484   1.434       .  A
C4483      C4490   1.507       .  S
C4484      C4485   1.407   1_554  A
C4484      H4489   1.084       .  S
C4485      C4486   1.439       .  A
C4486      C4487   1.506       .  S
C4487      H4491   1.111       .  S
C4487      H4492   1.108       .  S
C4487      H4493   1.109       .  S
C4490      H4494   1.110       .  S
C4490      H4495   1.110       .  S
C4490      H4496   1.110       .  S
C4497      C4498   1.411       .  A
C4497      C4502   1.394       .  A
C4497      H4504   1.083       .  S
C4498      C4499   1.415       .  A
C4499      C4500   1.400       .  A
C4499      C4506   1.507       .  S
C4500      C4501   1.400       .  A
C4500      H4505   1.083       .  S
C4501      C4502   1.400       .  A
C4502      C4503   1.507       .  S
C4503      H4507   1.109       .  S
C4503      H4508   1.110       .  S
C4503      H4509   1.110       .  S
C4506      H4510   1.109       .  S
C4506      H4511   1.105       .  S
C4506      H4512   1.110       .  S
C4513      C4514   1.403       .  A
C4513      C4518   1.404       .  A
C4513      H4520   1.084       .  S
C4514      C4515   1.416       .  A
C4515      C4516   1.399       .  A
C4515      C4522   1.508       .  S
C4516      C4517   1.401       .  A
C4516      H4521   1.084       .  S
C4517      C4518   1.416       .  A
C4518      C4519   1.508       .  S
C4519      H4523   1.110       .  S
C4519      H4524   1.110       .  S
C4519      H4525   1.110       .  S
C4522      H4526   1.109       .  S
C4522      H4527   1.108       .  S
C4522      H4528   1.111       .  S
C4529      C4530   1.428   1_554  A
C4529      C4534   1.440       .  A
C4529      H4536   1.084       .  S
C4530      C4531   1.420       .  A
C4531      C4532   1.445       .  A
C4531      C4538   1.502       .  S
C4532      C4533   1.434       .  A
C4532      H4537   1.084       .  S
C4533      C4534   1.423   1_556  A
C4534      C4535   1.500       .  S
C4535      H4539   1.110       .  S
C4535      H4540   1.111       .  S
C4535      H4541   1.105       .  S
C4538      H4542   1.110       .  S
C4538      H4543   1.110       .  S
C4538      H4544   1.111       .  S
C4545      C4546   1.437       .  A
C4545      C4550   1.440       .  A
C4545      H4552   1.083       .  S
C4546      C4547   1.417   1_554  A
C4547      C4548   1.440       .  A
C4547      C4554   1.500       .  S
C4548      C4549   1.434   1_556  A
C4548      H4553   1.083       .  S
C4549      C4550   1.416       .  A
C4550      C4551   1.503       .  S
C4551      H4555   1.110       .  S
C4551      H4556   1.110       .  S
C4551      H4557   1.111       .  S
C4554      H4558   1.110       .  S
C4554      H4559   1.110       .  S
C4554      H4560   1.103       .  S
C4561      C4562   1.410       .  A
C4561      C4566   1.414       .  A
C4561      H4568   1.084       .  S
C4562      C4563   1.418       .  A
C4563      C4564   1.402       .  A
C4563      C4570   1.510       .  S
C4564      C4565   1.408       .  A
C4564      H4569   1.082       .  S
C4565      C4566   1.422       .  A
C4566      C4567   1.507       .  S
C4567      H4571   1.111       .  S
C4567      H4572   1.111       .  S
C4567      H4573   1.109       .  S
C4570      H4574   1.111       .  S
C4570      H4575   1.108       .  S
C4570      H4576   1.111       .  S
C4577      C4578   1.408       .  A
C4577      C4582   1.399       .  A
C4577      H4584   1.084       .  S
C4578      C4579   1.412       .  A
C4579      C4580   1.399       .  A
C4579      C4586   1.507       .  S
C4580      C4581   1.409       .  A
C4580      H4585   1.084       .  S
C4581      C4582   1.411       .  A
C4582      C4583   1.507       .  S
C4583      H4587   1.111       .  S
C4583      H4588   1.108       .  S
C4583      H4589   1.110       .  S
C4586      H4590   1.106       .  S
C4586      H4591   1.110       .  S
C4586      H4592   1.111       .  S
C4593      C4594   1.400       .  A
C4593      C4598   1.402       .  A
C4593      H4600   1.083       .  S
C4594      C4595   1.413       .  A
C4595      C4596   1.395       .  A
C4595      C4602   1.508       .  S
C4596      C4597   1.401       .  A
C4596      H4601   1.085       .  S
C4597      C4598   1.415       .  A
C4598      C4599   1.508       .  S
C4599      H4603   1.109       .  S
C4599      H4604   1.110       .  S
C4599      H4605   1.111       .  S
C4602      H4606   1.108       .  S
C4602      H4607   1.110       .  S
C4602      H4608   1.111       .  S
C4609      C4610   1.406       .  A
C4609      C4614   1.409       .  A
C4609      H4616   1.084       .  S
C4610      C4611   1.416       .  A
C4611      C4612   1.402       .  A
C4611      C4618   1.508       .  S
C4612      C4613   1.408       .  A
C4612      H4617   1.084       .  S
C4613      C4614   1.420       .  A
C4614      C4615   1.507       .  S
C4615      H4619   1.111       .  S
C4615      H4620   1.111       .  S
C4615      H4621   1.110       .  S
C4618      H4622   1.109       .  S
C4618      H4623   1.110       .  S
C4618      H4624   1.111       .  S
C4625      C4626   1.397       .  A
C4625      C4630   1.401   1_545  A
C4625      H4632   1.085       .  S
C4626      C4627   1.413   1_545  A
C4627      C4628   1.389       .  A
C4627      C4634   1.506       .  S
C4628      C4629   1.400       .  A
C4628      H4633   1.084       .  S
C4629      C4630   1.420       .  A
C4630      C4631   1.505       .  S
C4631      H4635   1.110       .  S
C4631      H4636   1.110   1_565  S
C4631      H4637   1.108       .  S
C4634      H4638   1.104       .  S
C4634      H4639   1.110       .  S
C4634      H4640   1.110       .  S
C4641      C4642   1.403       .  A
C4641      C4646   1.403       .  A
C4641      H4648   1.084       .  S
C4642      C4643   1.412       .  A
C4643      C4644   1.401       .  A
C4643      C4650   1.508       .  S
C4644      C4645   1.405       .  A
C4644      H4649   1.084       .  S
C4645      C4646   1.417       .  A
C4646      C4647   1.508       .  S
C4647      H4651   1.111       .  S
C4647      H4652   1.110       .  S
C4647      H4653   1.108       .  S
C4650      H4654   1.109       .  S
C4650      H4655   1.110       .  S
C4650      H4656   1.111       .  S
C4657      C4658   1.414       .  A
C4657      C4662   1.443       .  A
C4657      H4664   1.083       .  S
C4658      C4659   1.442   1_545  A
C4659      C4660   1.435       .  A
C4659      C4666   1.507       .  S
C4660      C4661   1.410   1_565  A
C4660      H4665   1.080       .  S
C4661      C4662   1.440       .  A
C4662      C4663   1.504       .  S
C4663      H4667   1.111       .  S
C4663      H4668   1.110       .  S
C4663      H4669   1.110       .  S
C4666      H4670   1.107       .  S
C4666      H4671   1.111       .  S
C4666      H4672   1.111       .  S
C4673      C4674   1.404       .  A
C4673      C4678   1.397       .  A
C4673      H4680   1.082       .  S
C4674      C4675   1.421       .  A
C4675      C4676   1.413       .  A
C4675      C4682   1.507       .  S
C4676      C4677   1.409       .  A
C4676      H4681   1.084       .  S
C4677      C4678   1.419       .  A
C4678      C4679   1.511       .  S
C4679      H4683   1.111       .  S
C4679      H4684   1.108       .  S
C4679      H4685   1.109       .  S
C4682      H4686   1.110       .  S
C4682      H4687   1.110       .  S
C4682      H4688   1.111       .  S
C4689      C4690   1.412       .  A
C4689      C4694   1.402       .  A
C4689      H4696   1.084       .  S
C4690      C4691   1.411       .  A
C4691      C4692   1.396       .  A
C4691      C4698   1.507       .  S
C4692      C4693   1.404       .  A
C4692      H4697   1.084       .  S
C4693      C4694   1.407       .  A
C4694      C4695   1.505       .  S
C4695      H4699   1.111       .  S
C4695      H4700   1.108       .  S
C4695      H4701   1.108       .  S
C4698      H4702   1.109       .  S
C4698      H4703   1.111       .  S
C4698      H4704   1.110       .  S
C4705      C4706   1.435       .  A
C4705      C4710   1.440       .  A
C4705      H4712   1.079       .  S
C4706      C4707   1.416   1_565  A
C4707      C4708   1.444       .  A
C4707      C4714   1.502       .  S
C4708      C4709   1.439       .  A
C4708      H4713   1.083       .  S
C4709      C4710   1.417   1_545  A
C4710      C4711   1.500       .  S
C4711      H4715   1.111       .  S
C4711      H4716   1.103       .  S
C4711      H4717   1.110       .  S
C4714      H4718   1.110       .  S
C4714      H4719   1.111       .  S
C4714      H4720   1.110       .  S
C4721      C4722   1.417       .  A
C4721      C4726   1.395   1_545  A
C4721      H4728   1.082       .  S
C4722      C4723   1.415       .  A
C4723      C4724   1.399   1_545  A
C4723      C4730   1.505       .  S
C4724      C4725   1.400       .  A
C4724      H4729   1.084       .  S
C4725      C4726   1.400       .  A
C4726      C4727   1.505       .  S
C4727      H4731   1.111       .  S
C4727      H4732   1.109       .  S
C4727      H4733   1.110       .  S
C4730      H4734   1.110       .  S
C4730      H4735   1.106       .  S
C4730      H4736   1.110       .  S
C4737      C4738   1.401       .  A
C4737      C4742   1.405       .  A
C4737      H4744   1.084       .  S
C4738      C4739   1.412       .  A
C4739      C4740   1.399       .  A
C4739      C4746   1.507       .  S
C4740      C4741   1.404       .  A
C4740      H4745   1.084       .  S
C4741      C4742   1.420       .  A
C4742      C4743   1.508       .  S
C4743      H4747   1.111       .  S
C4743      H4748   1.109       .  S
C4743      H4749   1.110       .  S
C4746      H4750   1.109       .  S
C4746      H4751   1.110       .  S
C4746      H4752   1.111       .  S
C4753      C4754   1.406       .  A
C4753      C4758   1.399       .  A
C4753      H4760   1.084       .  S
C4754      C4755   1.405       .  A
C4755      C4756   1.395       .  A
C4755      C4762   1.506       .  S
C4756      C4757   1.410       .  A
C4756      H4761   1.084       .  S
C4757      C4758   1.413       .  A
C4758      C4759   1.505       .  S
C4759      H4763   1.111       .  S
C4759      H4764   1.106       .  S
C4759      H4765   1.107       .  S
C4762      H4766   1.109       .  S
C4762      H4767   1.111       .  S
C4762      H4768   1.110       .  S
C4769      C4770   1.408       .  A
C4769      C4774   1.439   1_565  A
C4769      H4776   1.084   1_565  S
C4770      C4771   1.449       .  A
C4771      C4772   1.439       .  A
C4771      C4778   1.507       .  S
C4772      C4773   1.406       .  A
C4772      H4777   1.084       .  S
C4773      C4774   1.447   1_565  A
C4774      C4775   1.506       .  S
C4775      H4779   1.109       .  S
C4775      H4780   1.111       .  S
C4775      H4781   1.107       .  S
C4778      H4782   1.109       .  S
C4778      H4783   1.111       .  S
C4778      H4784   1.111       .  S
C4785      C4786   1.430       .  A
C4785      C4790   1.443       .  A
C4785      H4792   1.084   1_565  S
C4786      C4787   1.413       .  A
C4787      C4788   1.437       .  A
C4787      C4794   1.504       .  S
C4788      C4789   1.441       .  A
C4788      H4793   1.082       .  S
C4789      C4790   1.426       .  A
C4790      C4791   1.500   1_565  S
C4791      H4795   1.110       .  S
C4791      H4796   1.108       .  S
C4791      H4797   1.105       .  S
C4794      H4798   1.111       .  S
C4794      H4799   1.110       .  S
C4794      H4800   1.111       .  S
C4801      C4802   1.410       .  A
C4801      C4806   1.398       .  A
C4801      H4808   1.078       .  S
C4802      C4803   1.409       .  A
C4803      C4804   1.409       .  A
C4803      C4810   1.504   1_554  S
C4804      C4805   1.408       .  A
C4804      H4809   1.083       .  S
C4805      C4806   1.404       .  A
C4806      C4807   1.507       .  S
C4807      H4811   1.111       .  S
C4807      H4812   1.110       .  S
C4807      H4813   1.111       .  S
C4810      H4814   1.110       .  S
C4810      H4815   1.110       .  S
C4810      H4816   1.111       .  S
C4817      C4818   1.408       .  A
C4817      C4822   1.411       .  A
C4817      H4824   1.084       .  S
C4818      C4819   1.417       .  A
C4819      C4820   1.401       .  A
C4819      C4826   1.509       .  S
C4820      C4821   1.402       .  A
C4820      H4825   1.085       .  S
C4821      C4822   1.415       .  A
C4822      C4823   1.506       .  S
C4823      H4827   1.111       .  S
C4823      H4828   1.109       .  S
C4823      H4829   1.110       .  S
C4826      H4830   1.111       .  S
C4826      H4831   1.108       .  S
C4826      H4832   1.111       .  S
C4833      C4834   1.411       .  A
C4833      C4838   1.407       .  A
C4833      H4840   1.084       .  S
C4834      C4835   1.421       .  A
C4835      C4836   1.401       .  A
C4835      C4842   1.508       .  S
C4836      C4837   1.404       .  A
C4836      H4841   1.084       .  S
C4837      C4838   1.415       .  A
C4838      C4839   1.507       .  S
C4839      H4843   1.111       .  S
C4839      H4844   1.110       .  S
C4839      H4845   1.107       .  S
C4842      H4846   1.110       .  S
C4842      H4847   1.109       .  S
C4842      H4848   1.111       .  S
C4849      C4850   1.411       .  A
C4849      C4854   1.403       .  A
C4849      H4856   1.083       .  S
C4850      C4851   1.426       .  A
C4851      C4852   1.397       .  A
C4851      C4858   1.506       .  S
C4852      C4853   1.395       .  A
C4852      H4857   1.084       .  S
C4853      C4854   1.406       .  A
C4854      C4855   1.506       .  S
C4855      H4859   1.110       .  S
C4855      H4860   1.111       .  S
C4855      H4861   1.109       .  S
C4858      H4862   1.095       .  S
C4858      H4863   1.111       .  S
C4858      H4864   1.110       .  S
C4865      C4866   1.407       .  A
C4865      C4870   1.396       .  A
C4865      H4872   1.084       .  S
C4866      C4867   1.412       .  A
C4867      C4868   1.389       .  A
C4867      C4874   1.509       .  S
C4868      C4869   1.402       .  A
C4868      H4873   1.082       .  S
C4869      C4870   1.407       .  A
C4870      C4871   1.507       .  S
C4871      H4875   1.111       .  S
C4871      H4876   1.108       .  S
C4871      H4877   1.109       .  S
C4874      H4878   1.104       .  S
C4874      H4879   1.109       .  S
C4874      H4880   1.105       .  S
C4881      C4882   1.404       .  A
C4881      C4886   1.395       .  A
C4881      H4888   1.085       .  S
C4882      C4883   1.406       .  A
C4883      C4884   1.397       .  A
C4883      C4890   1.502       .  S
C4884      C4885   1.408       .  A
C4884      H4889   1.084       .  S
C4885      C4886   1.410       .  A
C4886      C4887   1.506       .  S
C4887      H4891   1.111       .  S
C4887      H4892   1.110       .  S
C4887      H4893   1.110       .  S
C4890      H4894   1.106       .  S
C4890      H4895   1.108       .  S
C4890      H4896   1.110       .  S
C4897      C4898   1.403       .  A
C4897      C4902   1.405       .  A
C4897      H4904   1.084       .  S
C4898      C4899   1.403       .  A
C4899      C4900   1.399       .  A
C4899      C4906   1.507       .  S
C4900      C4901   1.415       .  A
C4900      H4905   1.084       .  S
C4901      C4902   1.417       .  A
C4902      C4903   1.507       .  S
C4903      H4907   1.111       .  S
C4903      H4908   1.111       .  S
C4903      H4909   1.108       .  S
C4906      H4910   1.109       .  S
C4906      H4911   1.110       .  S
C4906      H4912   1.111       .  S
C4913      C4914   1.396       .  A
C4913      C4918   1.391       .  A
C4913      H4920   1.084       .  S
C4914      C4915   1.428       .  A
C4915      C4916   1.406       .  A
C4915      C4922   1.510       .  S
C4916      C4917   1.395       .  A
C4916      H4921   1.084       .  S
C4917      C4918   1.414       .  A
C4918      C4919   1.505       .  S
C4919      H4923   1.111       .  S
C4919      H4924   1.105       .  S
C4919      H4925   1.104       .  S
C4922      H4926   1.108       .  S
C4922      H4927   1.110       .  S
C4922      H4928   1.111       .  S
C4929      C4930   1.421       .  A
C4929      C4934   1.428       .  A
C4929      H4936   1.079       .  S
C4930      C4931   1.419       .  A
C4931      C4932   1.439       .  A
C4931      C4938   1.502       .  S
C4932      C4933   1.423       .  A
C4932      H4937   1.079       .  S
C4933      C4934   1.417       .  A
C4934      C4935   1.506       .  S
C4935      H4939   1.111       .  S
C4935      H4940   1.110       .  S
C4935      H4941   1.111       .  S
C4938      H4942   1.110       .  S
C4938      H4943   1.110       .  S
C4938      H4944   1.111       .  S
C4945      C4946   1.408       .  A
C4945      C4950   1.400       .  A
C4945      H4952   1.084       .  S
C4946      C4947   1.420       .  A
C4947      C4948   1.384       .  A
C4947      C4954   1.514       .  S
C4948      C4949   1.393       .  A
C4948      H4953   1.086       .  S
C4949      C4950   1.405       .  A
C4950      C4951   1.505       .  S
C4951      H4955   1.110       .  S
C4951      H4956   1.109       .  S
C4951      H4957   1.111       .  S
C4954      H4958   1.108       .  S
C4954      H4959   1.109       .  S
C4954      H4960   1.111       .  S
C4961      C4962   1.405       .  A
C4961      C4966   1.403       .  A
C4961      H4968   1.084       .  S
C4962      C4963   1.416       .  A
C4963      C4964   1.394       .  A
C4963      C4970   1.510       .  S
C4964      C4965   1.397       .  A
C4964      H4969   1.085       .  S
C4965      C4966   1.408       .  A
C4966      C4967   1.506       .  S
C4967      H4971   1.111       .  S
C4967      H4972   1.110       .  S
C4967      H4973   1.110       .  S
C4970      H4974   1.108       .  S
C4970      H4975   1.111       .  S
C4970      H4976   1.111       .  S
C4977      C4978   1.407       .  A
C4977      C4982   1.402   1_655  A
C4977      H4984   1.084       .  S
C4978      C4979   1.419       .  A
C4979      C4980   1.401       .  A
C4979      C4986   1.504       .  S
C4980      C4981   1.398   1_655  A
C4980      H4985   1.085       .  S
C4981      C4982   1.410       .  A
C4982      C4983   1.504       .  S
C4983      H4987   1.111       .  S
C4983      H4988   1.110       .  S
C4983      H4989   1.110       .  S
C4986      H4990   1.107       .  S
C4986      H4991   1.110       .  S
C4986      H4992   1.110       .  S
C4993      C4994   1.407       .  A
C4993      C4998   1.399       .  A
C4993      H5000   1.084       .  S
C4994      C4995   1.417       .  A
C4995      C4996   1.399       .  A
C4995      C5002   1.508       .  S
C4996      C4997   1.403       .  A
C4996      H5001   1.085       .  S
C4997      C4998   1.411       .  A
C4998      C4999   1.507       .  S
C4999      H5003   1.111       .  S
C4999      H5004   1.108       .  S
C4999      H5005   1.111       .  S
C5002      H5006   1.110       .  S
C5002      H5007   1.108       .  S
C5002      H5008   1.111       .  S
C5009      C5010   1.425       .  A
C5009      C5014   1.454       .  A
C5009      H5016   1.083       .  S
C5010      C5011   1.435       .  A
C5011      C5012   1.422       .  A
C5011      C5018   1.506       .  S
C5012      C5013   1.412       .  A
C5012      H5017   1.085       .  S
C5013      C5014   1.432       .  A
C5014      C5015   1.496       .  S
C5015      H5019   1.110       .  S
C5015      H5020   1.110       .  S
C5015      H5021   1.103       .  S
C5018      H5022   1.109       .  S
C5018      H5023   1.100       .  S
C5018      H5024   1.110       .  S
C5025      C5026   1.393       .  A
C5025      C5030   1.393       .  A
C5025      H5032   1.085       .  S
C5026      C5027   1.408       .  A
C5027      C5028   1.394       .  A
C5027      C5034   1.508       .  S
C5028      C5029   1.403       .  A
C5028      H5033   1.085       .  S
C5029      C5030   1.421       .  A
C5030      C5031   1.510       .  S
C5031      H5035   1.111       .  S
C5031      H5036   1.109       .  S
C5031      H5037   1.102       .  S
C5034      H5038   1.111       .  S
C5034      H5039   1.109   1_655  S
C5034      H5040   1.110       .  S
C5041      C5042   1.409       .  A
C5041      C5046   1.398       .  A
C5041      H5048   1.084       .  S
C5042      C5043   1.413       .  A
C5043      C5044   1.394       .  A
C5043      C5050   1.506       .  S
C5044      C5045   1.403       .  A
C5044      H5049   1.082       .  S
C5045      C5046   1.406       .  A
C5046      C5047   1.504       .  S
C5047      H5051   1.111       .  S
C5047      H5052   1.110       .  S
C5047      H5053   1.110       .  S
C5050      H5054   1.103       .  S
C5050      H5055   1.111       .  S
C5050      H5056   1.111       .  S
C5057      C5058   1.415       .  A
C5057      C5062   1.391       .  A
C5057      H5064   1.084       .  S
C5058      C5059   1.415       .  A
C5059      C5060   1.400       .  A
C5059      C5066   1.508       .  S
C5060      C5061   1.402       .  A
C5060      H5065   1.084       .  S
C5061      C5062   1.401       .  A
C5062      C5063   1.505       .  S
C5063      H5067   1.109       .  S
C5063      H5068   1.109       .  S
C5063      H5069   1.110       .  S
C5066      H5070   1.111       .  S
C5066      H5071   1.109       .  S
C5066      H5072   1.111       .  S
C5073      C5074   1.403       .  A
C5073      C5078   1.398       .  A
C5073      H5080   1.083       .  S
C5074      C5075   1.411       .  A
C5075      C5076   1.402       .  A
C5075      C5082   1.508       .  S
C5076      C5077   1.411       .  A
C5076      H5081   1.084       .  S
C5077      C5078   1.418       .  A
C5078      C5079   1.509       .  S
C5079      H5083   1.111       .  S
C5079      H5084   1.110       .  S
C5079      H5085   1.109       .  S
C5082      H5086   1.110       .  S
C5082      H5087   1.110       .  S
C5082      H5088   1.111       .  S
C5089      C5090   1.409       .  A
C5089      C5094   1.429   1_655  A
C5089      H5096   1.084       .  S
C5090      C5091   1.435   1_655  A
C5091      C5092   1.433       .  A
C5091      C5098   1.500   1_455  S
C5092      C5093   1.409       .  A
C5092      H5097   1.084       .  S
C5093      C5094   1.431       .  A
C5094      C5095   1.502       .  S
C5095      H5099   1.111       .  S
C5095      H5100   1.110       .  S
C5095      H5101   1.107       .  S
C5098      H5102   1.106       .  S
C5098      H5103   1.111   1_655  S
C5098      H5104   1.110   1_655  S
C5105      C5106   1.413       .  A
C5105      C5110   1.424       .  A
C5105      H5112   1.085       .  S
C5106      C5107   1.425       .  A
C5107      C5108   1.445       .  A
C5107      C5114   1.501       .  S
C5108      C5109   1.423       .  A
C5108      H5113   1.082       .  S
C5109      C5110   1.428       .  A
C5110      C5111   1.508       .  S
C5111      H5115   1.111       .  S
C5111      H5116   1.108       .  S
C5111      H5117   1.111       .  S
C5114      H5118   1.110       .  S
C5114      H5119   1.111       .  S
C5114      H5120   1.111       .  S
C5121      C5122   1.408       .  A
C5121      C5126   1.393       .  A
C5121      H5128   1.084       .  S
C5122      C5123   1.420       .  A
C5123      C5124   1.400       .  A
C5123      C5130   1.509       .  S
C5124      C5125   1.397       .  A
C5124      H5129   1.084       .  S
C5125      C5126   1.403       .  A
C5126      C5127   1.508       .  S
C5127      H5131   1.111       .  S
C5127      H5132   1.110       .  S
C5127      H5133   1.111       .  S
C5130      H5134   1.110       .  S
C5130      H5135   1.111       .  S
C5130      H5136   1.110       .  S
C5137      C5138   1.396       .  A
C5137      C5142   1.392       .  A
C5137      H5144   1.085       .  S
C5138      C5139   1.407       .  A
C5139      C5140   1.402       .  A
C5139      C5146   1.506       .  S
C5140      C5141   1.406       .  A
C5140      H5145   1.084       .  S
C5141      C5142   1.418       .  A
C5142      C5143   1.512       .  S
C5143      H5147   1.111       .  S
C5143      H5148   1.109       .  S
C5143      H5149   1.109       .  S
C5146      H5150   1.111       .  S
C5146      H5151   1.110       .  S
C5146      H5152   1.109       .  S
C5153      C5154   1.411       .  A
C5153      C5158   1.394       .  A
C5153      H5160   1.079       .  S
C5154      C5155   1.411       .  A
C5155      C5156   1.407       .  A
C5155      C5162   1.505       .  S
C5156      C5157   1.407       .  A
C5156      H5161   1.084       .  S
C5157      C5158   1.400       .  A
C5158      C5159   1.508       .  S
C5159      H5163   1.111       .  S
C5159      H5164   1.110       .  S
C5159      H5165   1.110       .  S
C5162      H5166   1.110       .  S
C5162      H5167   1.110       .  S
C5162      H5168   1.111       .  S
C5169      C5170   1.411       .  A
C5169      C5174   1.411       .  A
C5169      H5176   1.084       .  S
C5170      C5171   1.413       .  A
C5171      C5172   1.401       .  A
C5171      C5178   1.507       .  S
C5172      C5173   1.407       .  A
C5172      H5177   1.079       .  S
C5173      C5174   1.414       .  A
C5174      C5175   1.505       .  S
C5175      H5179   1.111       .  S
C5175      H5180   1.110       .  S
C5175      H5181   1.110       .  S
C5178      H5182   1.110       .  S
C5178      H5183   1.110       .  S
C5178      H5184   1.107       .  S
C5185      C5186   1.400       .  A
C5185      C5190   1.400       .  A
C5185      H5192   1.084       .  S
C5186      C5187   1.415       .  A
C5187      C5188   1.405       .  A
C5187      C5194   1.508       .  S
C5188      C5189   1.404       .  A
C5188      H5193   1.084       .  S
C5189      C5190   1.416       .  A
C5190      C5191   1.509       .  S
C5191      H5195   1.111       .  S
C5191      H5196   1.109       .  S
C5191      H5197   1.111       .  S
C5194      H5198   1.108       .  S
C5194      H5199   1.111       .  S
C5194      H5200   1.111       .  S
C5201      C5202   1.407       .  A
C5201      C5206   1.391       .  A
C5201      H5208   1.084       .  S
C5202      C5203   1.415       .  A
C5203      C5204   1.401       .  A
C5203      C5210   1.508       .  S
C5204      C5205   1.403       .  A
C5204      H5209   1.085       .  S
C5205      C5206   1.403       .  A
C5206      C5207   1.504       .  S
C5207      H5211   1.111       .  S
C5207      H5212   1.110       .  S
C5207      H5213   1.105       .  S
C5210      H5214   1.111       .  S
C5210      H5215   1.108       .  S
C5210      H5216   1.111       .  S
C5217      C5218   1.405       .  A
C5217      C5222   1.396       .  A
C5217      H5224   1.084       .  S
C5218      C5219   1.425       .  A
C5219      C5220   1.402       .  A
C5219      C5226   1.509       .  S
C5220      C5221   1.394       .  A
C5220      H5225   1.085       .  S
C5221      C5222   1.405       .  A
C5222      C5223   1.503       .  S
C5223      H5227   1.111       .  S
C5223      H5228   1.110       .  S
C5223      H5229   1.107       .  S
C5226      H5230   1.109       .  S
C5226      H5231   1.109       .  S
C5226      H5232   1.111       .  S
C5233      C5234   1.403       .  A
C5233      C5238   1.404       .  A
C5233      H5240   1.084       .  S
C5234      C5235   1.417       .  A
C5235      C5236   1.407       .  A
C5235      C5242   1.508       .  S
C5236      C5237   1.409       .  A
C5236      H5241   1.084       .  S
C5237      C5238   1.419       .  A
C5238      C5239   1.508       .  S
C5239      H5243   1.111       .  S
C5239      H5244   1.110       .  S
C5239      H5245   1.106       .  S
C5242      H5246   1.111       .  S
C5242      H5247   1.107       .  S
C5242      H5248   1.111       .  S
C5249      C5250   1.421       .  A
C5249      C5254   1.439       .  A
C5249      H5256   1.080       .  S
C5250      C5251   1.423       .  A
C5251      C5252   1.436       .  A
C5251      C5258   1.504       .  S
C5252      C5253   1.420       .  A
C5252      H5257   1.080       .  S
C5253      C5254   1.424       .  A
C5254      C5255   1.504       .  S
C5255      H5259   1.111       .  S
C5255      H5260   1.111       .  S
C5255      H5261   1.110       .  S
C5258      H5262   1.110       .  S
C5258      H5263   1.110       .  S
C5258      H5264   1.111       .  S
C5265      C5266   1.408       .  A
C5265      C5270   1.401       .  A
C5265      H5272   1.084       .  S
C5266      C5267   1.418       .  A
C5267      C5268   1.398       .  A
C5267      C5274   1.504       .  S
C5268      C5269   1.404       .  A
C5268      H5273   1.085       .  S
C5269      C5270   1.410       .  A
C5270      C5271   1.505       .  S
C5271      H5275   1.111       .  S
C5271      H5276   1.110       .  S
C5271      H5277   1.110       .  S
C5274      H5278   1.100       .  S
C5274      H5279   1.110       .  S
C5274      H5280   1.110       .  S
C5281      C5282   1.407       .  A
C5281      C5286   1.400       .  A
C5281      H5288   1.084       .  S
C5282      C5283   1.411       .  A
C5283      C5284   1.395       .  A
C5283      C5290   1.509       .  S
C5284      C5285   1.407       .  A
C5284      H5289   1.081       .  S
C5285      C5286   1.410       .  A
C5286      C5287   1.506       .  S
C5287      H5291   1.107       .  S
C5287      H5292   1.108       .  S
C5287      H5293   1.111       .  S
C5290      H5294   1.110       .  S
C5290      H5295   1.100       .  S
C5290      H5296   1.108       .  S
C5297      C5298   1.409       .  A
C5297      C5302   1.406       .  A
C5297      H5304   1.084       .  S
C5298      C5299   1.419       .  A
C5299      C5300   1.404       .  A
C5299      C5306   1.509       .  S
C5300      C5301   1.405       .  A
C5300      H5305   1.085       .  S
C5301      C5302   1.412       .  A
C5302      C5303   1.507       .  S
C5303      H5307   1.111       .  S
C5303      H5308   1.109       .  S
C5303      H5309   1.111       .  S
C5306      H5310   1.111       .  S
C5306      H5311   1.109       .  S
C5306      H5312   1.111       .  S
C5313      C5314   1.408       .  A
C5313      C5318   1.396       .  A
C5313      H5320   1.083       .  S
C5314      C5315   1.423       .  A
C5315      C5316   1.406       .  A
C5315      C5322   1.507       .  S
C5316      C5317   1.399       .  A
C5316      H5321   1.084       .  S
C5317      C5318   1.409       .  A
C5318      C5319   1.507       .  S
C5319      H5323   1.110       .  S
C5319      H5324   1.110       .  S
C5319      H5325   1.106       .  S
C5322      H5326   1.111       .  S
C5322      H5327   1.110       .  S
C5322      H5328   1.110       .  S
C5329      C5330   1.425       .  A
C5329      C5334   1.441       .  A
C5329      H5336   1.078       .  S
C5330      C5331   1.417       .  A
C5331      C5332   1.421       .  A
C5331      C5338   1.506       .  S
C5332      C5333   1.421       .  A
C5332      H5337   1.082       .  S
C5333      C5334   1.418       .  A
C5334      C5335   1.501       .  S
C5335      H5339   1.111       .  S
C5335      H5340   1.110       .  S
C5335      H5341   1.110       .  S
C5338      H5342   1.109       .  S
C5338      H5343   1.111       .  S
C5338      H5344   1.111       .  S
C5345      C5346   1.402       .  A
C5345      C5350   1.399       .  A
C5345      H5352   1.085       .  S
C5346      C5347   1.415       .  A
C5347      C5348   1.397       .  A
C5347      C5354   1.508       .  S
C5348      C5349   1.404       .  A
C5348      H5353   1.084       .  S
C5349      C5350   1.421       .  A
C5350      C5351   1.510       .  S
C5351      H5355   1.112       .  S
C5351      H5356   1.109       .  S
C5351      H5357   1.110       .  S
C5354      H5358   1.110       .  S
C5354      H5359   1.109       .  S
C5354      H5360   1.111       .  S
C5361      C5362   1.408       .  A
C5361      C5366   1.395       .  A
C5361      H5368   1.080       .  S
C5362      C5363   1.407       .  A
C5363      C5364   1.394       .  A
C5363      C5370   1.508       .  S
C5364      C5365   1.409       .  A
C5364      H5369   1.084       .  S
C5365      C5366   1.406       .  A
C5366      C5367   1.509       .  S
C5367      H5371   1.108       .  S
C5367      H5372   1.109       .  S
C5367      H5373   1.100       .  S
C5370      H5374   1.111       .  S
C5370      H5375   1.107       .  S
C5370      H5376   1.108       .  S
C5377      C5378   1.404       .  A
C5377      C5382   1.403       .  A
C5377      H5384   1.085       .  S
C5378      C5379   1.405       .  A
C5379      C5380   1.401       .  A
C5379      C5386   1.507       .  S
C5380      C5381   1.410       .  A
C5380      H5385   1.084       .  S
C5381      C5382   1.414       .  A
C5382      C5383   1.508       .  S
C5383      H5387   1.111       .  S
C5383      H5388   1.111       .  S
C5383      H5389   1.109       .  S
C5386      H5390   1.110       .  S
C5386      H5391   1.111       .  S
C5386      H5392   1.111       .  S
C5393      C5394   1.410       .  A
C5393      C5398   1.397       .  A
C5393      H5400   1.082       .  S
C5394      C5395   1.409       .  A
C5395      C5396   1.404       .  A
C5395      C5402   1.505       .  S
C5396      C5397   1.406       .  A
C5396      H5401   1.084       .  S
C5397      C5398   1.400       .  A
C5398      C5399   1.505   1_556  S
C5399      H5403   1.111       .  S
C5399      H5404   1.110       .  S
C5399      H5405   1.109       .  S
C5402      H5406   1.110       .  S
C5402      H5407   1.110       .  S
C5402      H5408   1.111       .  S
C5409      C5410   1.423       .  A
C5409      C5414   1.440       .  A
C5409      H5416   1.082       .  S
C5410      C5411   1.418       .  A
C5411      C5412   1.421       .  A
C5411      C5418   1.507       .  S
C5412      C5413   1.415       .  A
C5412      H5417   1.084       .  S
C5413      C5414   1.420       .  A
C5414      C5415   1.501       .  S
C5415      H5419   1.111       .  S
C5415      H5420   1.111       .  S
C5415      H5421   1.110       .  S
C5418      H5422   1.111       .  S
C5418      H5423   1.110       .  S
C5418      H5424   1.111       .  S
C5425      C5426   1.420       .  A
C5425      C5430   1.436       .  A
C5425      H5432   1.081       .  S
C5426      C5427   1.423       .  A
C5427      C5428   1.428       .  A
C5427      C5434   1.506       .  S
C5428      C5429   1.413       .  A
C5428      H5433   1.077       .  S
C5429      C5430   1.425       .  A
C5430      C5431   1.504       .  S
C5431      H5435   1.110       .  S
C5431      H5436   1.109       .  S
C5431      H5437   1.111       .  S
C5434      H5438   1.110       .  S
C5434      H5439   1.109       .  S
C5434      H5440   1.111       .  S
C5441      C5442   1.401       .  A
C5441      C5446   1.400       .  A
C5441      H5448   1.084       .  S
C5442      C5443   1.409       .  A
C5443      C5444   1.395       .  A
C5443      C5450   1.509       .  S
C5444      C5445   1.404       .  A
C5444      H5449   1.085       .  S
C5445      C5446   1.415       .  A
C5446      C5447   1.508       .  S
C5447      H5451   1.111       .  S
C5447      H5452   1.110       .  S
C5447      H5453   1.110       .  S
C5450      H5454   1.109       .  S
C5450      H5455   1.111       .  S
C5450      H5456   1.111       .  S
C5457      C5458   1.394       .  A
C5457      C5462   1.395       .  A
C5457      H5464   1.085       .  S
C5458      C5459   1.410       .  A
C5459      C5460   1.394       .  A
C5459      C5466   1.507       .  S
C5460      C5461   1.405       .  A
C5460      H5465   1.084       .  S
C5461      C5462   1.421       .  A
C5462      C5463   1.506       .  S
C5463      H5467   1.110       .  S
C5463      H5468   1.108       .  S
C5463      H5469   1.109       .  S
C5466      H5470   1.111       .  S
C5466      H5471   1.107       .  S
C5466      H5472   1.111       .  S
