geometry optimzed in LAMMPS
_audit_creation_date              2020-11-30 
_audit_creation_method            'lammps2cif' 
_symmetry_space_group_name_H-M    'P1' 
_symmetry_Int_Tables_number       1 
_symmetry_cell_setting            triclinic 
loop_ 
_symmetry_equiv_pos_as_xyz 
  x,y,z 
_cell_length_a                    26.818391948486433 
_cell_length_b                    35.40142512418279 
_cell_length_c                    43.00306284686949 
_cell_angle_alpha                 89.86872273977512 
_cell_angle_beta                  90.0902660388818 
_cell_angle_gamma                 90.2988743992518 
loop_ 
_atom_site_label 
_atom_site_type_symbol 
_atom_site_fract_x 
_atom_site_fract_y 
_atom_site_fract_z 
_atom_site_charge 
C1          C  0.71647101  0.10333179  0.14384575     0.04950
C2          C  0.74873741  0.08422899  0.12377250    -0.11200
C3          C  0.78606344  0.10401226  0.10743269     0.02450
C4          C  0.78909881  0.14353824  0.11050651    -0.09730
C5          C  0.75548964  0.16309994  0.12952021     0.04940
C6          C  0.71994997  0.14265259  0.14662846    -0.09150
H7          H  0.74514493  0.05387894  0.12132379     0.10540
H8          H  0.81747242  0.15920960  0.09798454     0.08070
H9          H  0.69469553  0.15735561  0.16203597     0.07910
O10         O  0.95225788  0.04267395  0.00862535    -0.72610
O11         O  0.05672487  0.99489112  0.46279089    -0.72640
O12         O  0.95587634  0.99417772  0.45982449    -0.72690
O13         O  0.05314924  0.04313308  0.01126953    -0.72740
O14         O  0.05265487  0.99381474  0.04342343    -0.72670
O15         O  0.95142151  0.94648814  0.49379534    -0.72650
O16         O  0.05227480  0.94512695  0.49467967    -0.72630
O17         O  0.95171993  0.99484759  0.04225984    -0.72690
Ni18       Ni  0.00452933  0.02046676  0.48445471     1.25410
Ni19       Ni  0.00199664  0.96832951  0.01972088     1.25360
C20         C  0.93498143  0.02687891  0.03324103     0.89570
C21         C  0.07116348  0.96195617  0.47105289     0.89510
C22         C  0.93747033  0.96243154  0.46851745     0.89530
C23         C  0.06938489  0.02651468  0.03573547     0.89700
C24         C  0.28465995  0.10391418  0.14973069     0.04950
C25         C  0.25140048  0.08460761  0.13004253    -0.11200
C26         C  0.21388075  0.10413387  0.11387443     0.02450
C27         C  0.21075329  0.14358953  0.11700229    -0.09730
C28         C  0.24458672  0.16341188  0.13588527     0.04940
C29         C  0.28064674  0.14327071  0.15266835    -0.09150
H30         H  0.25532672  0.05442071  0.12684421     0.10540
H31         H  0.18237654  0.15900627  0.10438453     0.08070
H32         H  0.30567520  0.15838181  0.16811030     0.07910
C33         C  0.79144388  0.88542206  0.39361713     0.04950
C34         C  0.75630256  0.90501854  0.37573481    -0.11200
C35         C  0.72154358  0.88520222  0.35745449     0.02450
C36         C  0.72215385  0.84551421  0.35746904    -0.09730
C37         C  0.75693246  0.82559406  0.37555043     0.04940
C38         C  0.79165372  0.84585234  0.39351440    -0.09150
H39         H  0.75652625  0.93564237  0.37572886     0.10540
H40         H  0.69536163  0.83010047  0.34343820     0.08070
H41         H  0.81844316  0.83089542  0.40779696     0.07910
O42         O  0.45427664  0.99560567  0.29352168    -0.72610
O43         O  0.55565066  0.04199651  0.24364340    -0.72640
O44         O  0.45490394  0.04368914  0.24415435    -0.72690
O45         O  0.55505699  0.99416961  0.29272403    -0.72740
O46         O  0.55400321  0.94583851  0.25965366    -0.72670
O47         O  0.45087350  0.99388652  0.21245030    -0.72650
O48         O  0.55172038  0.99385037  0.21033168    -0.72630
O49         O  0.45280357  0.94621313  0.26144458    -0.72690
Ni50       Ni  0.50500584  0.02061544  0.26966463     1.25410
Ni51       Ni  0.50232824  0.96816412  0.23483350     1.25360
C52         C  0.43692802  0.96318135  0.28574965     0.89570
C53         C  0.57006464  0.02574782  0.21867002     0.89510
C54         C  0.43638899  0.02684193  0.22043964     0.89530
C55         C  0.57137437  0.96191269  0.28410274     0.89700
C56         C  0.22217299  0.88579841  0.39910209     0.04950
C57         C  0.25511435  0.90593603  0.37965070    -0.11200
C58         C  0.29031107  0.88682314  0.36152710     0.02450
C59         C  0.29165562  0.84726793  0.36199704    -0.09730
C60         C  0.25913609  0.82670965  0.38117653     0.04940
C61         C  0.22553515  0.84616218  0.40021834    -0.09150
H62         H  0.25284320  0.93640630  0.37791815     0.10540
H63         H  0.31792082  0.83252608  0.34729605     0.08070
H64         H  0.20189281  0.83019136  0.41591121     0.07910
C65         C  0.72181956  0.60204329  0.35825035     0.04950
C66         C  0.72144269  0.64162999  0.35849731    -0.11200
C67         C  0.75612796  0.66187123  0.37653450     0.02450
C68         C  0.79088028  0.64190181  0.39459736    -0.09730
C69         C  0.79180953  0.60228302  0.39414025     0.04940
C70         C  0.75736298  0.58243619  0.37577444    -0.09150
H71         H  0.69443273  0.65659609  0.34438730     0.10540
H72         H  0.81734142  0.65714720  0.40900146     0.08070
H73         H  0.75763777  0.55181062  0.37555113     0.07910
C74         C  0.78702827  0.38551550  0.10740998     0.04950
C75         C  0.78930601  0.34607220  0.10984182    -0.11200
C76         C  0.75711421  0.32653768  0.12991119     0.02450
C77         C  0.72335028  0.34688193  0.14816209    -0.09730
C78         C  0.71887049  0.38632238  0.14510060     0.04940
C79         C  0.75100219  0.40536250  0.12440317    -0.09150
H80         H  0.81615806  0.33060070  0.09610026     0.10540
H81         H  0.70053702  0.33165325  0.16478573     0.08070
H82         H  0.74790227  0.43558191  0.12106282     0.07910
C83         C  0.29284177  0.60346228  0.36102979     0.04950
C84         C  0.29167266  0.64317772  0.36045784    -0.11200
C85         C  0.25777208  0.66320155  0.37886116     0.02450
C86         C  0.22346026  0.64316319  0.39719221    -0.09730
C87         C  0.22266604  0.60353365  0.39725915     0.04940
C88         C  0.25802895  0.58385265  0.37955343    -0.09150
H89         H  0.31690170  0.65866761  0.34540505     0.10540
H90         H  0.19762858  0.65847055  0.41179074     0.08070
H91         H  0.25827254  0.55327249  0.38017209     0.07910
O92         O  0.05760664  0.49359064  0.46165078    -0.72610
O93         O  0.95444463  0.44502422  0.00893487    -0.72640
O94         O  0.95669416  0.49365208  0.46008981    -0.72690
O95         O  0.05578188  0.44510079  0.01026721    -0.72740
O96         O  0.05456082  0.49370343  0.04326149    -0.72670
O97         O  0.95499910  0.54184288  0.49337156    -0.72650
O98         O  0.95404461  0.49341094  0.04196615    -0.72630
O99         O  0.05590319  0.54254622  0.49429727    -0.72690
Ni100      Ni  0.00614869  0.46757517  0.48407131     1.25410
Ni101      Ni  0.00493444  0.51962110  0.01937176     1.25360
C102        C  0.07329765  0.52617611  0.47014117     0.89570
C103        C  0.93728796  0.46116220  0.03332423     0.89510
C104        C  0.93940283  0.52569855  0.46853953     0.89530
C105        C  0.07121988  0.46140388  0.03505153     0.89700
O106        O  0.45314628  0.49761543  0.21226500    -0.72610
O107        O  0.55754252  0.54257785  0.26084416    -0.72640
O108        O  0.55464184  0.49613874  0.21122941    -0.72570
O109        O  0.45676240  0.54436224  0.26218874    -0.72740
O110        O  0.45366079  0.49346248  0.29291897    -0.72670
O111        O  0.55475900  0.44669439  0.24356760    -0.72650
O112        O  0.55462881  0.49363080  0.29366337    -0.72630
O113        O  0.45443019  0.44678007  0.24308463    -0.72690
Ni114      Ni  0.50548053  0.52195587  0.23546801     1.25410
Ni115      Ni  0.50438200  0.46837659  0.26947055     1.25360
C116        C  0.43724243  0.46453983  0.21946611     0.89570
C117        C  0.57274994  0.52565345  0.28539005     0.89510
C118        C  0.57086808  0.46353697  0.21914655     0.89530
C119        C  0.43913146  0.52678170  0.28582985     0.89700
C120        C  0.21457637  0.38545030  0.11222057     0.04950
C121        C  0.21081758  0.34622346  0.11587756    -0.11200
C122        C  0.24393350  0.32701336  0.13549659     0.02450
C123        C  0.27938353  0.34774201  0.15249067    -0.09730
C124        C  0.28478807  0.38702880  0.14832572     0.04940
C125        C  0.25227929  0.40558077  0.12768335    -0.09150
H126        H  0.18288628  0.33064813  0.10285217     0.10540
H127        H  0.30292614  0.33293607  0.16891264     0.08070
H128        H  0.25605127  0.43563465  0.12348808     0.07910
C129        C  0.31560638  0.44432799  0.17802166     0.25420
C130        C  0.32462095  0.40819394  0.16535117    -0.22690
C131        C  0.37206494  0.39193547  0.16975939     0.20320
C132        C  0.40822422  0.41024086  0.18767319     0.25360
C133        C  0.39906373  0.44607021  0.20011765    -0.22640
C134        C  0.35294789  0.46336442  0.19469012     0.20260
F135        F  0.34326111  0.49793844  0.20681237    -0.12590
F136        F  0.27013039  0.46070296  0.17548351    -0.14960
F137        F  0.45270363  0.39312035  0.19248058    -0.14960
F138        F  0.38405157  0.35852535  0.15632205    -0.12590
C139        C  0.13080778  0.41361885  0.10405872     0.25420
C140        C  0.17842803  0.40545781  0.09246155    -0.22690
C141        C  0.19090019  0.41593177  0.06194322     0.20320
C142        C  0.15570762  0.43389461  0.04301466     0.25360
C143        C  0.10824517  0.44243292  0.05473692    -0.22640
C144        C  0.09606653  0.43239269  0.08540921     0.20260
F145        F  0.05005337  0.43984295  0.09694131    -0.12590
F146        F  0.11810378  0.40334356  0.13344995    -0.14960
F147        F  0.16810804  0.44345213  0.01343549    -0.14960
F148        F  0.23690954  0.40838982  0.05047248    -0.12590
C149        C  0.13375967  0.59308412  0.41322404     0.25420
C150        C  0.18438712  0.58299004  0.41568596    -0.22690
C151        C  0.19795697  0.55362275  0.43611289     0.20320
C152        C  0.16160931  0.53488441  0.45375830     0.25360
C153        C  0.11143009  0.54546415  0.45148386    -0.22640
C154        C  0.09765901  0.57459247  0.43115400     0.20260
F155        F  0.04908006  0.58473583  0.42838645    -0.12590
F156        F  0.11910809  0.62038575  0.39299398    -0.14960
F157        F  0.17546052  0.50691743  0.47354087    -0.14960
F158        F  0.24650594  0.54381995  0.43968124    -0.12590
C159        C  0.35292811  0.53182985  0.30691028     0.25420
C160        C  0.40201473  0.54551810  0.30544302    -0.22690
C161        C  0.41557298  0.57749099  0.32269145     0.20320
C162        C  0.38049776  0.59561996  0.34137313     0.25360
C163        C  0.33060034  0.58281036  0.34230607    -0.22640
C164        C  0.31724626  0.55059792  0.32482323     0.20260
F165        F  0.26936942  0.53798461  0.32414497    -0.12590
F166        F  0.33922379  0.50099262  0.29016157    -0.14960
F167        F  0.39570403  0.62528114  0.35903496    -0.14960
F168        F  0.46317602  0.59071991  0.32188981    -0.12590
C169        C  0.69060317  0.44307432  0.17618485     0.25420
C170        C  0.68038522  0.40713894  0.16332052    -0.22690
C171        C  0.63290170  0.39086292  0.16849527     0.20320
C172        C  0.59795025  0.40897647  0.18722169     0.25360
C173        C  0.60821355  0.44471115  0.19964614    -0.22640
C174        C  0.65431429  0.46200465  0.19351172     0.20260
F175        F  0.66492931  0.49663645  0.20535809    -0.12590
F176        F  0.73619758  0.45945550  0.17307930    -0.14960
F177        F  0.55342009  0.39189525  0.19264824    -0.14960
F178        F  0.61954740  0.35773807  0.15489478    -0.12590
C179        C  0.86555928  0.41551525  0.03833979     0.25420
C180        C  0.89779411  0.44237841  0.05194456    -0.22690
C181        C  0.89199801  0.45110989  0.08369817     0.20320
C182        C  0.85523486  0.43314479  0.10144176     0.25360
C183        C  0.82362619  0.40603479  0.08791407    -0.22640
C184        C  0.82886863  0.39748520  0.05620651     0.20260
F185        F  0.79800270  0.37196424  0.04246575    -0.12590
F186        F  0.86893908  0.40708247  0.00763233    -0.14960
F187        F  0.85170885  0.44120793  0.13222018    -0.14960
F188        F  0.92297973  0.47613015  0.09795574    -0.12590
C189        C  0.86544911  0.55969006  0.39881562     0.25420
C190        C  0.82868291  0.58172516  0.41312316    -0.22690
C191        C  0.82780215  0.58465311  0.44565891     0.20320
C192        C  0.86359778  0.56616394  0.46369791     0.25360
C193        C  0.90090038  0.54442051  0.44944243    -0.22640
C194        C  0.90133138  0.54115592  0.41682483     0.20260
F195        F  0.93752041  0.52115769  0.40231062    -0.12590
F196        F  0.86744512  0.55709562  0.36734315    -0.14960
F197        F  0.86112362  0.56886502  0.49515268    -0.14960
F198        F  0.79173555  0.60500997  0.45995289    -0.12590
C199        C  0.63712667  0.57371453  0.35265883     0.25420
C200        C  0.68436221  0.58120510  0.33997805    -0.22690
C201        C  0.69524980  0.56946465  0.30961254     0.20320
C202        C  0.65881933  0.55109016  0.29182105     0.25360
C203        C  0.61153888  0.54362461  0.30447071    -0.22640
C204        C  0.60100405  0.55468312  0.33508336     0.20260
F205        F  0.55523123  0.54818673  0.34750474    -0.12590
F206        F  0.62597988  0.58521919  0.38192149    -0.14960
F207        F  0.66973854  0.54024635  0.26236622    -0.14960
F208        F  0.74092848  0.57622692  0.29716108    -0.12590
C209        C  0.30356300  0.76458453  0.38464327     0.25420
C210        C  0.25904872  0.78485323  0.38064825    -0.22690
C211        C  0.21423268  0.76490099  0.37574290     0.20320
C212        C  0.21387337  0.72543776  0.37495050     0.25360
C213        C  0.25832521  0.70510605  0.37911734    -0.22640
C214        C  0.30320077  0.72507310  0.38393791     0.20260
F215        F  0.34652929  0.70629205  0.38886558    -0.12590
F216        F  0.34722774  0.78302700  0.39005939    -0.14960
F217        F  0.17018896  0.70710427  0.36933420    -0.14960
F218        F  0.17088892  0.78369319  0.37087676    -0.12590
C219        C  0.36199774  0.93155663  0.35585825     0.25420
C220        C  0.32599888  0.90804817  0.34200739    -0.22690
C221        C  0.32567486  0.90359079  0.30958622     0.20320
C222        C  0.36140148  0.92190741  0.29124171     0.25360
C223        C  0.39812219  0.94495908  0.30507728    -0.22640
C224        C  0.39781990  0.94989548  0.33755431     0.20260
F225        F  0.43340665  0.97120604  0.35172379    -0.12590
F226        F  0.36356230  0.93557812  0.38724277    -0.14960
F227        F  0.35959546  0.91756478  0.25989266    -0.14960
F228        F  0.29044898  0.88166889  0.29570777    -0.12590
C229        C  0.71213012  0.76347176  0.38092889     0.25420
C230        C  0.75673659  0.78365881  0.37582639    -0.22690
C231        C  0.80113408  0.76349875  0.37103480     0.20320
C232        C  0.80091825  0.72398630  0.37130017     0.25360
C233        C  0.75630476  0.70380092  0.37637523    -0.22640
C234        C  0.71191222  0.72395630  0.38118132     0.20260
F235        F  0.66846455  0.70538916  0.38696480    -0.12590
F236        F  0.66888866  0.78202460  0.38653091    -0.14960
F237        F  0.84416523  0.70543090  0.36571378    -0.14960
F238        F  0.84458329  0.78205820  0.36523319    -0.12590
C239        C  0.67831109  0.89745754  0.30671132     0.25420
C240        C  0.68426790  0.90577061  0.33846154    -0.22690
C241        C  0.65363111  0.93322300  0.35209493     0.20320
C242        C  0.61725654  0.95167123  0.33442365     0.25360
C243        C  0.61065708  0.94295266  0.30270240    -0.22640
C244        C  0.64185762  0.91576804  0.28902181     0.20260
F245        F  0.63781890  0.90731939  0.25833419    -0.12590
F246        F  0.70847831  0.87200819  0.29263854    -0.14960
F247        F  0.58750106  0.97722614  0.34870271    -0.14960
F248        F  0.65776335  0.94129828  0.38285108    -0.12590
C249        C  0.28831664  0.22579650  0.13143694     0.25420
C250        C  0.24407827  0.20531715  0.13689114    -0.22690
C251        C  0.19964166  0.22517092  0.14245828     0.20320
C252        C  0.19947854  0.26475653  0.14238610     0.25360
C253        C  0.24375993  0.28513999  0.13683164    -0.22640
C254        C  0.28816856  0.26523694  0.13145181     0.20260
F255        F  0.33121876  0.28402078  0.12498851    -0.12590
F256        F  0.33149029  0.20759542  0.12489393    -0.14960
F257        F  0.15623318  0.28318471  0.14822087    -0.14960
F258        F  0.15655299  0.20624329  0.14846567    -0.12590
C259        C  0.37344667  0.09689576  0.16746882     0.25420
C260        C  0.32397911  0.08322754  0.16708022    -0.22690
C261        C  0.31229031  0.05015952  0.18394038     0.20320
C262        C  0.34921090  0.03142452  0.20096656     0.25360
C263        C  0.39798641  0.04583110  0.20190334    -0.22640
C264        C  0.40995965  0.07855970  0.18505149     0.20260
F265        F  0.45733486  0.09229905  0.18515629    -0.12590
F266        F  0.38669480  0.12762082  0.15035464    -0.14960
F267        F  0.33706414  0.99986902  0.21736107    -0.14960
F268        F  0.26482404  0.03667726  0.18481046    -0.12590
C269        C  0.91252440  0.93043818  0.41941306     0.25420
C270        C  0.89977526  0.94376203  0.44905747    -0.22690
C271        C  0.85107190  0.93847381  0.46022724     0.20320
C272        C  0.81535342  0.92011011  0.44184988     0.25360
C273        C  0.82833472  0.90622000  0.41241941    -0.22640
C274        C  0.87708361  0.91141220  0.40130145     0.20260
F275        F  0.89026201  0.89786858  0.37298450    -0.12590
F276        F  0.95964349  0.93493307  0.40845076    -0.14960
F277        F  0.76831275  0.91539653  0.45286673    -0.14960
F278        F  0.83809789  0.95149810  0.48875326    -0.12590
C279        C  0.11964964  0.03151941  0.08519067     0.25420
C280        C  0.10765277  0.04556232  0.05539195    -0.22690
C281        C  0.13224342  0.07845217  0.04474165     0.20320
C282        C  0.16724304  0.09697413  0.06347599     0.25360
C283        C  0.17822397  0.08345342  0.09348797    -0.22640
C284        C  0.15429642  0.05035634  0.10403493     0.20260
F285        F  0.16318010  0.03680080  0.13307544    -0.12590
F286        F  0.09712139  0.99997458  0.09658378    -0.14960
F287        F  0.19110956  0.12787319  0.05192364    -0.14960
F288        F  0.12291584  0.09277691  0.01600944    -0.12590
C289        C  0.09866275  0.90861643  0.43802207     0.25420
C290        C  0.10969447  0.94284943  0.45282217    -0.22690
C291        C  0.15744924  0.95873371  0.44990561     0.20320
C292        C  0.19435051  0.94004943  0.43294776     0.25360
C293        C  0.18341711  0.90575778  0.41760393    -0.22640
C294        C  0.13473698  0.89061440  0.42003817     0.20260
F295        F  0.12137743  0.85894366  0.40427347    -0.12590
F296        F  0.05231885  0.89319892  0.44021657    -0.14960
F297        F  0.24102898  0.95504661  0.43235191    -0.14960
F298        F  0.16872052  0.99181591  0.46428511    -0.12590
C299        C  0.71196376  0.22526617  0.12557934     0.25420
C300        C  0.75620495  0.20496822  0.13067301    -0.22690
C301        C  0.80087548  0.22496954  0.13608489     0.20320
C302        C  0.80129578  0.26453167  0.13609881     0.25360
C303        C  0.75703010  0.28471489  0.13087236    -0.22640
C304        C  0.71236533  0.26470387  0.12574754     0.20260
F305        F  0.66930201  0.28340773  0.11977020    -0.12590
F306        F  0.66853061  0.20690087  0.11930043    -0.14960
F307        F  0.84475880  0.28314179  0.14173899    -0.14960
F308        F  0.84393240  0.20620845  0.14189934    -0.12590
C309        C  0.64004685  0.06290334  0.14847269     0.25420
C310        C  0.67980481  0.08223434  0.16269975    -0.22690
C311        C  0.68402782  0.08206460  0.19523734     0.20320
C312        C  0.64855689  0.06329255  0.21340871     0.25360
C313        C  0.60835506  0.04428057  0.19928979    -0.22640
C314        C  0.60452921  0.04398378  0.16665052     0.20260
F315        F  0.56535776  0.02670600  0.15244409    -0.12590
F316        F  0.63481553  0.06341888  0.11706380    -0.14960
F317        F  0.65399782  0.06308792  0.24481102    -0.14960
F318        F  0.72292563  0.09979013  0.20936243    -0.12590
C319        C  0.83610766  0.09729066  0.05825614     0.25420
C320        C  0.82260580  0.08343993  0.08780107    -0.22690
C321        C  0.84534081  0.05024007  0.09882655     0.20320
C322        C  0.88093487  0.03154611  0.08092299     0.25360
C323        C  0.89553259  0.04593618  0.05167880    -0.22640
C324        C  0.87238984  0.07901162  0.04054560     0.20260
F325        F  0.88451779  0.09382291  0.01238779    -0.12590
F326        F  0.81362147  0.12831859  0.04616430    -0.14960
F327        F  0.90177474  0.99972109  0.09276162    -0.14960
F328        F  0.83453966  0.03643079  0.12753730    -0.12590
C329        C  0.71647102  0.10333180  0.64384576     0.04950
C330        C  0.74873742  0.08422900  0.62377251    -0.11200
C331        C  0.78606344  0.10401227  0.60743270     0.02450
C332        C  0.78909882  0.14353825  0.61050652    -0.09730
C333        C  0.75548965  0.16309995  0.62952022     0.04940
C334        C  0.71994998  0.14265260  0.64662847    -0.09150
H335        H  0.74514493  0.05387895  0.62132380     0.10540
H336        H  0.81747243  0.15920961  0.59798455     0.08070
H337        H  0.69469554  0.15735562  0.66203598     0.07910
O338        O  0.95225787  0.04267396  0.50862535    -0.72610
O339        O  0.05672487  0.99489111  0.96279089    -0.72640
O340        O  0.95587634  0.99417771  0.95982450    -0.72690
O341        O  0.05314923  0.04313309  0.51126952    -0.72740
O342        O  0.05265487  0.99381475  0.54342342    -0.72670
O343        O  0.95142152  0.94648813  0.99379535    -0.72650
O344        O  0.05227481  0.94512694  0.99467967    -0.72630
O345        O  0.95171993  0.99484760  0.54225984    -0.72690
Ni346      Ni  0.00452934  0.02046675  0.98445472     1.25410
Ni347      Ni  0.00199663  0.96832952  0.51972088     1.25360
C348        C  0.93498142  0.02687892  0.53324103     0.89570
C349        C  0.07116349  0.96195615  0.97105289     0.89510
C350        C  0.93747034  0.96243152  0.96851745     0.89530
C351        C  0.06938489  0.02651469  0.53573547     0.89700
C352        C  0.28465995  0.10391418  0.64973068     0.04950
C353        C  0.25140048  0.08460761  0.63004253    -0.11200
C354        C  0.21388074  0.10413387  0.61387443     0.02450
C355        C  0.21075329  0.14358954  0.61700229    -0.09730
C356        C  0.24458672  0.16341188  0.63588527     0.04940
C357        C  0.28064674  0.14327071  0.65266834    -0.09150
H358        H  0.25532671  0.05442071  0.62684421     0.10540
H359        H  0.18237654  0.15900627  0.60438453     0.08070
H360        H  0.30567520  0.15838182  0.66811030     0.07910
C361        C  0.79144387  0.88542206  0.89361714     0.04950
C362        C  0.75630254  0.90501854  0.87573483    -0.11200
C363        C  0.72154356  0.88520223  0.85745451     0.02450
C364        C  0.72215383  0.84551422  0.85746905    -0.09730
C365        C  0.75693245  0.82559407  0.87555044     0.04940
C366        C  0.79165371  0.84585234  0.89351440    -0.09150
H367        H  0.75652622  0.93564237  0.87572888     0.10540
H368        H  0.69536161  0.83010048  0.84343821     0.08070
H369        H  0.81844316  0.83089542  0.90779696     0.07910
O370        O  0.45427663  0.99560568  0.79352168    -0.72610
O371        O  0.55565066  0.04199652  0.74364340    -0.72640
O372        O  0.45490394  0.04368914  0.74415435    -0.72690
O373        O  0.55505699  0.99416962  0.79272403    -0.72740
O374        O  0.55400321  0.94583852  0.75965366    -0.72670
O375        O  0.45087350  0.99388652  0.71245030    -0.72650
O376        O  0.55172039  0.99385038  0.71033169    -0.72630
O377        O  0.45280357  0.94621313  0.76144458    -0.72690
Ni378      Ni  0.50500584  0.02061544  0.76966463     1.25410
Ni379      Ni  0.50232824  0.96816413  0.73483350     1.25360
C380        C  0.43692801  0.96318135  0.78574965     0.89570
C381        C  0.57006464  0.02574782  0.71867002     0.89510
C382        C  0.43638900  0.02684193  0.72043964     0.89530
C383        C  0.57137436  0.96191270  0.78410274     0.89700
C384        C  0.22217299  0.88579840  0.89910209     0.04950
C385        C  0.25511435  0.90593602  0.87965070    -0.11200
C386        C  0.29031107  0.88682313  0.86152709     0.02450
C387        C  0.29165561  0.84726793  0.86199703    -0.09730
C388        C  0.25913608  0.82670964  0.88117652     0.04940
C389        C  0.22553514  0.84616217  0.90021833    -0.09150
H390        H  0.25284320  0.93640630  0.87791815     0.10540
H391        H  0.31792081  0.83252607  0.84729604     0.08070
H392        H  0.20189280  0.83019135  0.91591120     0.07910
C393        C  0.72181956  0.60204330  0.85825035     0.04950
C394        C  0.72144269  0.64162999  0.85849731    -0.11200
C395        C  0.75612796  0.66187123  0.87653450     0.02450
C396        C  0.79088028  0.64190182  0.89459736    -0.09730
C397        C  0.79180954  0.60228302  0.89414025     0.04940
C398        C  0.75736299  0.58243619  0.87577443    -0.09150
H399        H  0.69443273  0.65659610  0.84438730     0.10540
H400        H  0.81734143  0.65714721  0.90900146     0.08070
H401        H  0.75763778  0.55181062  0.87555113     0.07910
C402        C  0.78702828  0.38551550  0.60740999     0.04950
C403        C  0.78930603  0.34607220  0.60984183    -0.11200
C404        C  0.75711423  0.32653769  0.62991120     0.02450
C405        C  0.72335030  0.34688194  0.64816210    -0.09730
C406        C  0.71887051  0.38632239  0.64510061     0.04940
C407        C  0.75100221  0.40536251  0.62440318    -0.09150
H408        H  0.81615808  0.33060070  0.59610027     0.10540
H409        H  0.70053703  0.33165326  0.66478574     0.08070
H410        H  0.74790229  0.43558191  0.62106283     0.07910
C411        C  0.29284176  0.60346227  0.86102978     0.04950
C412        C  0.29167263  0.64317771  0.86045782    -0.11200
C413        C  0.25777205  0.66320154  0.87886113     0.02450
C414        C  0.22346023  0.64316318  0.89719219    -0.09730
C415        C  0.22266602  0.60353364  0.89725914     0.04940
C416        C  0.25802894  0.58385264  0.87955343    -0.09150
H417        H  0.31690167  0.65866760  0.84540503     0.10540
H418        H  0.19762855  0.65847054  0.91179071     0.08070
H419        H  0.25827253  0.55327249  0.88017209     0.07910
O420        O  0.05760664  0.49359063  0.96165078    -0.72610
O421        O  0.95444464  0.44502423  0.50893488    -0.72640
O422        O  0.95669415  0.49365207  0.96008981    -0.72690
O423        O  0.05578189  0.44510080  0.51026722    -0.72740
O424        O  0.05456082  0.49370344  0.54326149    -0.72670
O425        O  0.95499910  0.54184287  0.99337156    -0.72650
O426        O  0.95404461  0.49341095  0.54196615    -0.72630
O427        O  0.05590319  0.54254621  0.99429727    -0.72690
Ni428      Ni  0.00614868  0.46757516  0.98407131     1.25410
Ni429      Ni  0.00493444  0.51962111  0.51937176     1.25360
C430        C  0.07329765  0.52617610  0.97014117     0.89570
C431        C  0.93728796  0.46116221  0.53332424     0.89510
C432        C  0.93940283  0.52569855  0.96853952     0.89530
C433        C  0.07121989  0.46140389  0.53505153     0.89700
O434        O  0.45314629  0.49761543  0.71226500    -0.72610
O435        O  0.55754252  0.54257786  0.76084416    -0.72640
O436        O  0.55464185  0.49613874  0.71122941    -0.72570
O437        O  0.45676240  0.54436224  0.76218874    -0.72740
O438        O  0.45366079  0.49346248  0.79291897    -0.72670
O439        O  0.55475901  0.44669440  0.74356760    -0.72650
O440        O  0.55462881  0.49363080  0.79366337    -0.72630
O441        O  0.45443019  0.44678007  0.74308463    -0.72690
Ni442      Ni  0.50548053  0.52195588  0.73546801     1.25410
Ni443      Ni  0.50438201  0.46837659  0.76947055     1.25360
C444        C  0.43724244  0.46453983  0.71946611     0.89570
C445        C  0.57274994  0.52565345  0.78539005     0.89510
C446        C  0.57086808  0.46353698  0.71914655     0.89530
C447        C  0.43913146  0.52678170  0.78582985     0.89700
C448        C  0.21457637  0.38545030  0.61222058     0.04950
C449        C  0.21081758  0.34622346  0.61587756    -0.11200
C450        C  0.24393349  0.32701336  0.63549660     0.02450
C451        C  0.27938352  0.34774201  0.65249068    -0.09730
C452        C  0.28478807  0.38702880  0.64832573     0.04940
C453        C  0.25227929  0.40558077  0.62768335    -0.09150
H454        H  0.18288628  0.33064813  0.60285218     0.10540
H455        H  0.30292613  0.33293607  0.66891264     0.08070
H456        H  0.25605127  0.43563466  0.62348808     0.07910
C457        C  0.31560639  0.44432799  0.67802166     0.25420
C458        C  0.32462094  0.40819394  0.66535117    -0.22690
C459        C  0.37206493  0.39193547  0.66975940     0.20320
C460        C  0.40822422  0.41024086  0.68767319     0.25360
C461        C  0.39906373  0.44607021  0.70011765    -0.22640
C462        C  0.35294790  0.46336443  0.69469011     0.20260
F463        F  0.34326112  0.49793845  0.70681236    -0.12590
F464        F  0.27013039  0.46070297  0.67548351    -0.14960
F465        F  0.45270362  0.39312035  0.69248060    -0.14960
F466        F  0.38405156  0.35852534  0.65632207    -0.12590
C467        C  0.13080778  0.41361887  0.60405873     0.25420
C468        C  0.17842803  0.40545782  0.59246156    -0.22690
C469        C  0.19090018  0.41593176  0.56194322     0.20320
C470        C  0.15570762  0.43389461  0.54301466     0.25360
C471        C  0.10824517  0.44243294  0.55473693    -0.22640
C472        C  0.09606654  0.43239272  0.58540922     0.20260
F473        F  0.05005338  0.43984299  0.59694133    -0.12590
F474        F  0.11810379  0.40334360  0.63344996    -0.14960
F475        F  0.16810803  0.44345212  0.51343549    -0.14960
F476        F  0.23690953  0.40838980  0.55047248    -0.12590
C477        C  0.13375965  0.59308409  0.91322402     0.25420
C478        C  0.18438710  0.58299003  0.91568596    -0.22690
C479        C  0.19795696  0.55362277  0.93611290     0.20320
C480        C  0.16160931  0.53488442  0.95375831     0.25360
C481        C  0.11143008  0.54546414  0.95148385    -0.22640
C482        C  0.09765899  0.57459244  0.93115398     0.20260
F483        F  0.04908003  0.58473578  0.92838641    -0.12590
F484        F  0.11910806  0.62038571  0.89299394    -0.14960
F485        F  0.17546053  0.50691746  0.97354090    -0.14960
F486        F  0.24650594  0.54381998  0.93968127    -0.12590
C487        C  0.35292811  0.53182984  0.80691029     0.25420
C488        C  0.40201473  0.54551809  0.80544302    -0.22690
C489        C  0.41557296  0.57749099  0.82269144     0.20320
C490        C  0.38049774  0.59561996  0.84137312     0.25360
C491        C  0.33060033  0.58281035  0.84230607    -0.22640
C492        C  0.31724626  0.55059790  0.82482323     0.20260
F493        F  0.26936942  0.53798458  0.82414498    -0.12590
F494        F  0.33922380  0.50099260  0.79016158    -0.14960
F495        F  0.39570401  0.62528114  0.85903494    -0.14960
F496        F  0.46317601  0.59071992  0.82188980    -0.12590
C497        C  0.69060318  0.44307432  0.67618486     0.25420
C498        C  0.68038524  0.40713895  0.66332052    -0.22690
C499        C  0.63290171  0.39086293  0.66849527     0.20320
C500        C  0.59795025  0.40897649  0.68722168     0.25360
C501        C  0.60821356  0.44471115  0.69964614    -0.22640
C502        C  0.65431430  0.46200465  0.69351173     0.20260
F503        F  0.66492932  0.49663645  0.70535811    -0.12590
F504        F  0.73619760  0.45945550  0.67307932    -0.14960
F505        F  0.55342009  0.39189526  0.69264823    -0.14960
F506        F  0.61954741  0.35773809  0.65489477    -0.12590
C507        C  0.86555928  0.41551526  0.53833980     0.25420
C508        C  0.89779412  0.44237842  0.55194456    -0.22690
C509        C  0.89199803  0.45110989  0.58369818     0.20320
C510        C  0.85523488  0.43314480  0.60144177     0.25360
C511        C  0.82362621  0.40603479  0.58791408    -0.22640
C512        C  0.82886864  0.39748521  0.55620652     0.20260
F513        F  0.79800271  0.37196426  0.54246576    -0.12590
F514        F  0.86893908  0.40708248  0.50763234    -0.14960
F515        F  0.85170888  0.44120793  0.63222020    -0.14960
F516        F  0.92297975  0.47613015  0.59795575    -0.12590
C517        C  0.86544909  0.55969005  0.89881562     0.25420
C518        C  0.82868292  0.58172517  0.91312316    -0.22690
C519        C  0.82780217  0.58465313  0.94565891     0.20320
C520        C  0.86359780  0.56616396  0.96369791     0.25360
C521        C  0.90090038  0.54442051  0.94944243    -0.22640
C522        C  0.90133137  0.54115591  0.91682483     0.20260
F523        F  0.93752038  0.52115766  0.90231061    -0.12590
F524        F  0.86744509  0.55709559  0.86734315    -0.14960
F525        F  0.86112366  0.56886506  0.99515268    -0.14960
F526        F  0.79173559  0.60501000  0.95995288    -0.12590
C527        C  0.63712666  0.57371456  0.85265883     0.25420
C528        C  0.68436221  0.58120511  0.83997806    -0.22690
C529        C  0.69524981  0.56946463  0.80961255     0.20320
C530        C  0.65881934  0.55109014  0.79182106     0.25360
C531        C  0.61153888  0.54362462  0.80447071    -0.22640
C532        C  0.60100403  0.55468315  0.83508335     0.20260
F533        F  0.55523121  0.54818678  0.84750472    -0.12590
F534        F  0.62597985  0.58521924  0.88192147    -0.14960
F535        F  0.66973856  0.54024631  0.76236623    -0.14960
F536        F  0.74092850  0.57622688  0.79716109    -0.12590
C537        C  0.30356298  0.76458452  0.88464325     0.25420
C538        C  0.25904871  0.78485322  0.88064823    -0.22690
C539        C  0.21423266  0.76490098  0.87574288     0.20320
C540        C  0.21387335  0.72543775  0.87495048     0.25360
C541        C  0.25832518  0.70510604  0.87911732    -0.22640
C542        C  0.30320075  0.72507309  0.88393788     0.20260
F543        F  0.34652926  0.70629203  0.88886555    -0.12590
F544        F  0.34722772  0.78302699  0.89005936    -0.14960
F545        F  0.17018893  0.70710426  0.86933419    -0.14960
F546        F  0.17088890  0.78369318  0.87087675    -0.12590
C547        C  0.36199771  0.93155665  0.85585824     0.25420
C548        C  0.32599887  0.90804816  0.84200739    -0.22690
C549        C  0.32567488  0.90359076  0.80958621     0.20320
C550        C  0.36140150  0.92190739  0.79124171     0.25360
C551        C  0.39812218  0.94495908  0.80507728    -0.22640
C552        C  0.39781988  0.94989550  0.83755430     0.20260
F553        F  0.43340660  0.97120608  0.85172379    -0.12590
F554        F  0.36356225  0.93557816  0.88724276    -0.14960
F555        F  0.35959550  0.91756474  0.75989266    -0.14960
F556        F  0.29044902  0.88166885  0.79570776    -0.12590
C557        C  0.71213011  0.76347176  0.88092889     0.25420
C558        C  0.75673658  0.78365881  0.87582639    -0.22690
C559        C  0.80113407  0.76349876  0.87103480     0.20320
C560        C  0.80091824  0.72398631  0.87130016     0.25360
C561        C  0.75630476  0.70380092  0.87637523    -0.22640
C562        C  0.71191222  0.72395631  0.88118133     0.20260
F563        F  0.66846455  0.70538916  0.88696481    -0.12590
F564        F  0.66888866  0.78202460  0.88653093    -0.14960
F565        F  0.84416522  0.70543091  0.86571377    -0.14960
F566        F  0.84458328  0.78205821  0.86523319    -0.12590
C567        C  0.67831109  0.89745755  0.80671134     0.25420
C568        C  0.68426789  0.90577061  0.83846155    -0.22690
C569        C  0.65363109  0.93322301  0.85209494     0.20320
C570        C  0.61725652  0.95167124  0.83442366     0.25360
C571        C  0.61065707  0.94295267  0.80270240    -0.22640
C572        C  0.64185762  0.91576806  0.78902182     0.20260
F573        F  0.63781890  0.90731941  0.75833420    -0.12590
F574        F  0.70847830  0.87200820  0.79263856    -0.14960
F575        F  0.58750104  0.97722614  0.84870272    -0.14960
F576        F  0.65776333  0.94129828  0.88285109    -0.12590
C577        C  0.28831664  0.22579651  0.63143694     0.25420
C578        C  0.24407827  0.20531715  0.63689114    -0.22690
C579        C  0.19964166  0.22517092  0.64245828     0.20320
C580        C  0.19947854  0.26475653  0.64238610     0.25360
C581        C  0.24375993  0.28513999  0.63683165    -0.22640
C582        C  0.28816855  0.26523695  0.63145182     0.20260
F583        F  0.33121876  0.28402079  0.62498851    -0.12590
F584        F  0.33149029  0.20759542  0.62489393    -0.14960
F585        F  0.15623317  0.28318471  0.64822088    -0.14960
F586        F  0.15655299  0.20624329  0.64846568    -0.12590
C587        C  0.37344668  0.09689576  0.66746881     0.25420
C588        C  0.32397911  0.08322754  0.66708022    -0.22690
C589        C  0.31229030  0.05015953  0.68394038     0.20320
C590        C  0.34921090  0.03142452  0.70096657     0.25360
C591        C  0.39798641  0.04583110  0.70190334    -0.22640
C592        C  0.40995966  0.07855969  0.68505148     0.20260
F593        F  0.45733487  0.09229904  0.68515627    -0.12590
F594        F  0.38669481  0.12762081  0.65035462    -0.14960
F595        F  0.33706413  0.99986904  0.71736109    -0.14960
F596        F  0.26482403  0.03667727  0.68481047    -0.12590
C597        C  0.91252443  0.93043810  0.91941309     0.25420
C598        C  0.89977526  0.94376202  0.94905748    -0.22690
C599        C  0.85107187  0.93847388  0.96022722     0.20320
C600        C  0.81535339  0.92011019  0.94184986     0.25360
C601        C  0.82833472  0.90622000  0.91241942    -0.22640
C602        C  0.87708364  0.91141211  0.90130149     0.20260
F603        F  0.89026206  0.89786842  0.87298456    -0.12590
F604        F  0.95964355  0.93493291  0.90845083    -0.14960
F605        F  0.76831270  0.91539669  0.95286668    -0.14960
F606        F  0.83809784  0.95149825  0.98875321    -0.12590
C607        C  0.11964964  0.03151942  0.58519066     0.25420
C608        C  0.10765277  0.04556233  0.55539194    -0.22690
C609        C  0.13224342  0.07845218  0.54474165     0.20320
C610        C  0.16724304  0.09697414  0.56347599     0.25360
C611        C  0.17822396  0.08345343  0.59348797    -0.22640
C612        C  0.15429642  0.05035635  0.60403493     0.20260
F613        F  0.16318010  0.03680080  0.63307543    -0.12590
F614        F  0.09712139  0.99997459  0.59658378    -0.14960
F615        F  0.19110956  0.12787320  0.55192365    -0.14960
F616        F  0.12291583  0.09277692  0.51600944    -0.12590
C617        C  0.09866275  0.90861642  0.93802207     0.25420
C618        C  0.10969448  0.94284942  0.95282217    -0.22690
C619        C  0.15744925  0.95873369  0.94990562     0.20320
C620        C  0.19435052  0.94004941  0.93294777     0.25360
C621        C  0.18341711  0.90575777  0.91760393    -0.22640
C622        C  0.13473698  0.89061440  0.92003817     0.20260
F623        F  0.12137743  0.85894366  0.90427346    -0.12590
F624        F  0.05231885  0.89319891  0.94021656    -0.14960
F625        F  0.24102900  0.95504658  0.93235193    -0.14960
F626        F  0.16872054  0.99181589  0.96428513    -0.12590
C627        C  0.71196377  0.22526618  0.62557936     0.25420
C628        C  0.75620496  0.20496823  0.63067303    -0.22690
C629        C  0.80087549  0.22496955  0.63608490     0.20320
C630        C  0.80129580  0.26453167  0.63609882     0.25360
C631        C  0.75703011  0.28471490  0.63087237    -0.22640
C632        C  0.71236535  0.26470388  0.62574755     0.20260
F633        F  0.66930203  0.28340774  0.61977021    -0.12590
F634        F  0.66853062  0.20690088  0.61930045    -0.14960
F635        F  0.84475881  0.28314180  0.64173900    -0.14960
F636        F  0.84393241  0.20620846  0.64189935    -0.12590
C637        C  0.64004686  0.06290335  0.64847270     0.25420
C638        C  0.67980482  0.08223435  0.66269976    -0.22690
C639        C  0.68402782  0.08206461  0.69523735     0.20320
C640        C  0.64855689  0.06329256  0.71340872     0.25360
C641        C  0.60835507  0.04428058  0.69928979    -0.22640
C642        C  0.60452922  0.04398379  0.66665053     0.20260
F643        F  0.56535777  0.02670601  0.65244410    -0.12590
F644        F  0.63481555  0.06341889  0.61706381    -0.14960
F645        F  0.65399782  0.06308793  0.74481103    -0.14960
F646        F  0.72292563  0.09979014  0.70936244    -0.12590
C647        C  0.83610766  0.09729067  0.55825614     0.25420
C648        C  0.82260580  0.08343994  0.58780108    -0.22690
C649        C  0.84534081  0.05024008  0.59882656     0.20320
C650        C  0.88093487  0.03154612  0.58092299     0.25360
C651        C  0.89553259  0.04593619  0.55167880    -0.22640
C652        C  0.87238984  0.07901164  0.54054560     0.20260
F653        F  0.88451779  0.09382292  0.51238779    -0.12590
F654        F  0.81362147  0.12831860  0.54616431    -0.14960
F655        F  0.90177474  0.99972110  0.59276162    -0.14960
F656        F  0.83453967  0.03643079  0.62753730    -0.12590
loop_ 
_geom_bond_atom_site_label_1 
_geom_bond_atom_site_label_2 
_geom_bond_distance 
_geom_bond_site_symmetry_2 
_ccdc_geom_bond_type 
C1            C2   1.401       .  A
C1            C6   1.400       .  A
C1          C310   1.475       .  S
C2            C3   1.407       .  A
C2            H7   1.084       .  S
C3            C4   1.408       .  A
C3          C320   1.489       .  S
C4            C5   1.404       .  A
C4            H8   1.083       .  S
C5            C6   1.402       .  A
C5          C300   1.483       .  S
C6            H9   1.084       .  S
O10          C20   1.282       .  A
O10        Ni346   1.919   1_654  S
O11          C21   1.280       .  A
O11         Ni18   1.915   1_565  S
O12          C22   1.280       .  A
O12         Ni18   1.918   1_665  S
O13          C23   1.281       .  A
O13        Ni346   1.914   1_554  S
O14          C23   1.282   1_565  A
O14         Ni19   1.920       .  S
O15          C22   1.280       .  A
O15        Ni347   1.915   1_655  S
O16          C21   1.280       .  A
O16        Ni347   1.916       .  S
O17          C20   1.281   1_565  A
O17         Ni19   1.913   1_655  S
Ni18        O338   1.919   1_455  S
Ni18        O341   1.914       .  S
Ni18       Ni347   2.387   1_545  S
Ni19        O343   1.915   1_454  S
Ni19        O344   1.916   1_554  S
Ni19       Ni346   2.387   1_564  S
C20         C323   1.488       .  S
C21         C290   1.467       .  S
C22         C270   1.467       .  S
C23         C280   1.488       .  S
C24          C25   1.405       .  A
C24          C29   1.404       .  A
C24         C260   1.486       .  S
C25          C26   1.406       .  A
C25          H30   1.083       .  S
C26          C27   1.407       .  A
C26         C283   1.487       .  S
C27          C28   1.403       .  A
C27          H31   1.083       .  S
C28          C29   1.403       .  A
C28         C250   1.484       .  S
C29          H32   1.084       .  S
C33          C34   1.401       .  A
C33          C38   1.401       .  A
C33         C273   1.472       .  S
C34          C35   1.404       .  A
C34          H39   1.084       .  S
C35          C36   1.405       .  A
C35         C240   1.483       .  S
C36          C37   1.405       .  A
C36          H40   1.084       .  S
C37          C38   1.404       .  A
C37         C230   1.485       .  S
C38          H41   1.084       .  S
O42          C52   1.281       .  A
O42         Ni50   1.917   1_565  S
O43          C53   1.281       .  A
O43         Ni50   1.913       .  S
O44          C54   1.281       .  A
O44         Ni50   1.918       .  S
O45          C55   1.281       .  A
O45         Ni50   1.915   1_565  S
O46          C55   1.282       .  A
O46         Ni51   1.920       .  S
O47          C54   1.279   1_565  A
O47         Ni51   1.914       .  S
O48          C53   1.281   1_565  A
O48         Ni51   1.918       .  S
O49          C52   1.281       .  A
O49         Ni51   1.915       .  S
Ni50        Ni51   2.389   1_545  S
C52         C223   1.478       .  S
C53         C313   1.474       .  S
C54         C263   1.466       .  S
C55         C243   1.484       .  S
C56          C57   1.408       .  A
C56          C61   1.407       .  A
C56         C293   1.492       .  S
C57          C58   1.403       .  A
C57          H62   1.083       .  S
C58          C59   1.401       .  A
C58         C220   1.476       .  S
C59          C60   1.401       .  A
C59          H63   1.084       .  S
C60          C61   1.403       .  A
C60         C210   1.482       .  S
C61          H64   1.083       .  S
C65          C66   1.402       .  A
C65          C70   1.400       .  A
C65         C200   1.471       .  S
C66          C67   1.405       .  A
C66          H71   1.084       .  S
C67          C68   1.405       .  A
C67         C233   1.484       .  S
C68          C69   1.403       .  A
C68          H72   1.084       .  S
C69          C70   1.402       .  A
C69         C190   1.475       .  S
C70          H73   1.084       .  S
C74          C75   1.402       .  A
C74          C79   1.405       .  A
C74         C183   1.479       .  S
C75          C76   1.401       .  A
C75          H80   1.084       .  S
C76          C77   1.402       .  A
C76         C303   1.481       .  S
C77          C78   1.408       .  A
C77          H81   1.083       .  S
C78          C79   1.408       .  A
C78         C170   1.495       .  S
C79          H82   1.083       .  S
C83          C84   1.407       .  A
C83          C88   1.408       .  A
C83         C163   1.490       .  S
C84          C85   1.402       .  A
C84          H89   1.083       .  S
C85          C86   1.402       .  A
C85         C213   1.484       .  S
C86          C87   1.403       .  A
C86          H90   1.084       .  S
C87          C88   1.406       .  A
C87         C150   1.484       .  S
C88          H91   1.083       .  S
O92         C102   1.280       .  A
O92        Ni100   1.915       .  S
O93         C103   1.283       .  A
O93        Ni428   1.922   1_654  S
O94         C104   1.281       .  A
O94        Ni100   1.918   1_655  S
O95         C105   1.280       .  A
O95        Ni428   1.917   1_554  S
O96         C105   1.280       .  A
O96        Ni101   1.916       .  S
O97         C104   1.281       .  A
O97        Ni429   1.914   1_655  S
O98         C103   1.280       .  A
O98        Ni101   1.912   1_655  S
O99         C102   1.280       .  A
O99        Ni429   1.918       .  S
Ni100       O421   1.922   1_455  S
Ni100       O423   1.917       .  S
Ni100      Ni429   2.390       .  S
Ni101       O425   1.914   1_454  S
Ni101       O427   1.918   1_554  S
Ni101      Ni428   2.390   1_554  S
C102        C153   1.466       .  S
C103        C180   1.483       .  S
C104        C193   1.477       .  S
C105        C143   1.468       .  S
O106        C116   1.282       .  A
O106       Ni114   1.922       .  S
O107        C117   1.280       .  A
O107       Ni114   1.913       .  S
O108        C118   1.281       .  A
O108       Ni114   1.919       .  S
O109        C119   1.281       .  A
O109       Ni114   1.917       .  S
O110        C119   1.280       .  A
O110       Ni115   1.917       .  S
O111        C118   1.281       .  A
O111       Ni115   1.917       .  S
O112        C117   1.281       .  A
O112       Ni115   1.920       .  S
O113        C116   1.280       .  A
O113       Ni115   1.912       .  S
Ni114      Ni115   2.392       .  S
C116        C133   1.470       .  S
C117        C203   1.467       .  S
C118        C173   1.471       .  S
C119        C160   1.468       .  S
C120        C121   1.400       .  A
C120        C125   1.402       .  A
C120        C140   1.471       .  S
C121        C122   1.402       .  A
C121        H126   1.084       .  S
C122        C123   1.403       .  A
C122        C253   1.483       .  S
C123        C124   1.409       .  A
C123        H127   1.083       .  S
C124        C125   1.407       .  A
C124        C130   1.493       .  S
C125        H128   1.083       .  S
C129        C130   1.414       .  A
C129        C134   1.401       .  A
C129        F136   1.357       .  S
C130        C131   1.412       .  A
C131        C132   1.395       .  A
C131        F138   1.358       .  S
C132        C133   1.401       .  A
C132        F137   1.356       .  S
C133        C134   1.402       .  A
C134        F135   1.358       .  S
C139        C140   1.403       .  A
C139        C144   1.398       .  A
C139        F146   1.358       .  S
C140        C141   1.403       .  A
C141        C142   1.400       .  A
C141        F148   1.358       .  S
C142        C143   1.404       .  A
C142        F147   1.357       .  S
C143        C144   1.404       .  A
C144        F145   1.358       .  S
C149        C150   1.410       .  A
C149        C154   1.398       .  A
C149        F156   1.358       .  S
C150        C151   1.408       .  A
C151        C152   1.400       .  A
C151        F158   1.358       .  S
C152        C153   1.402       .  A
C152        F157   1.357       .  S
C153        C154   1.401       .  A
C154        F155   1.358       .  S
C159        C160   1.402       .  A
C159        C164   1.401       .  A
C159        F166   1.358       .  S
C160        C161   1.401       .  A
C161        C162   1.398       .  A
C161        F168   1.358       .  S
C162        C163   1.411       .  A
C162        F167   1.358       .  S
C163        C164   1.412       .  A
C164        F165   1.357       .  S
C169        C170   1.414       .  A
C169        C174   1.401       .  A
C169        F176   1.357       .  S
C170        C171   1.413       .  A
C171        C172   1.396       .  A
C171        F178   1.358       .  S
C172        C173   1.400       .  A
C172        F177   1.356       .  S
C173        C174   1.402       .  A
C174        F175   1.357       .  S
C179        C180   1.409       .  A
C179        C184   1.400       .  A
C179        F186   1.358       .  S
C180        C181   1.410       .  A
C181        C182   1.397       .  A
C181        F188   1.358       .  S
C182        C183   1.404       .  A
C182        F187   1.358       .  S
C183        C184   1.405       .  A
C184        F185   1.358       .  S
C189        C190   1.404       .  A
C189        C194   1.399       .  A
C189        F196   1.358       .  S
C190        C191   1.403       .  A
C191        C192   1.398       .  A
C191        F198   1.358       .  S
C192        C193   1.408       .  A
C192        F197   1.358       .  S
C193        C194   1.408       .  A
C194        F195   1.358       .  S
C199        C200   1.404       .  A
C199        C204   1.399       .  A
C199        F206   1.358       .  S
C200        C201   1.403       .  A
C201        C202   1.399       .  A
C201        F208   1.358       .  S
C202        C203   1.404       .  A
C202        F207   1.357       .  S
C203        C204   1.404       .  A
C204        F205   1.358       .  S
C209        C210   1.406       .  A
C209        C214   1.399       .  A
C209        F216   1.358       .  S
C210        C211   1.407       .  A
C211        C212   1.398       .  A
C211        F218   1.358       .  S
C212        C213   1.407       .  A
C212        F217   1.358       .  S
C213        C214   1.408       .  A
C214        F215   1.358       .  S
C219        C220   1.404       .  A
C219        C224   1.399       .  A
C219        F226   1.358       .  S
C220        C221   1.403       .  A
C221        C222   1.398       .  A
C221        F228   1.358       .  S
C222        C223   1.408       .  A
C222        F227   1.358       .  S
C223        C224   1.408       .  A
C224        F225   1.358       .  S
C229        C230   1.408       .  A
C229        C234   1.399       .  A
C229        F236   1.358       .  S
C230        C231   1.407       .  A
C231        C232   1.399       .  A
C231        F238   1.358       .  S
C232        C233   1.407       .  A
C232        F237   1.358       .  S
C233        C234   1.407       .  A
C234        F235   1.358       .  S
C239        C240   1.406       .  A
C239        C244   1.399       .  A
C239        F246   1.358       .  S
C240        C241   1.406       .  A
C241        C242   1.399       .  A
C241        F248   1.358       .  S
C242        C243   1.410       .  A
C242        F247   1.358       .  S
C243        C244   1.409       .  A
C244        F245   1.358       .  S
C249        C250   1.407       .  A
C249        C254   1.396       .  A
C249        F256   1.358       .  S
C250        C251   1.408       .  A
C251        C252   1.401       .  A
C251        F258   1.358       .  S
C252        C253   1.407       .  A
C252        F257   1.358       .  S
C253        C254   1.407       .  A
C254        F255   1.358       .  S
C259        C260   1.410       .  A
C259        C264   1.398       .  A
C259        F266   1.358       .  S
C260        C261   1.410       .  A
C261        C262   1.400       .  A
C261        F268   1.358       .  S
C262        C263   1.402       .  A
C262        F267   1.358   1_545  S
C263        C264   1.401       .  A
C264        F265   1.358       .  S
C269        C270   1.404       .  A
C269        C274   1.399       .  A
C269        F276   1.358       .  S
C270        C271   1.404       .  A
C271        C272   1.399       .  A
C271        F278   1.358       .  S
C272        C273   1.404       .  A
C272        F277   1.358       .  S
C273        C274   1.404       .  A
C274        F275   1.358       .  S
C279        C280   1.411       .  A
C279        C284   1.399       .  A
C279        F286   1.358   1_545  S
C280        C281   1.411       .  A
C281        C282   1.398       .  A
C281        F288   1.358       .  S
C282        C283   1.407       .  A
C282        F287   1.358       .  S
C283        C284   1.407       .  A
C284        F285   1.358       .  S
C289        C290   1.400       .  A
C289        C294   1.397       .  A
C289        F296   1.358       .  S
C290        C291   1.402       .  A
C291        C292   1.400       .  A
C291        F298   1.358       .  S
C292        C293   1.412       .  A
C292        F297   1.357       .  S
C293        C294   1.413       .  A
C294        F295   1.358       .  S
C299        C300   1.407       .  A
C299        C304   1.396       .  A
C299        F306   1.358       .  S
C300        C301   1.408       .  A
C301        C302   1.401       .  A
C301        F308   1.358       .  S
C302        C303   1.406       .  A
C302        F307   1.358       .  S
C303        C304   1.406       .  A
C304        F305   1.358       .  S
C309        C310   1.404       .  A
C309        C314   1.400       .  A
C309        F316   1.358       .  S
C310        C311   1.404       .  A
C311        C312   1.397       .  A
C311        F318   1.358       .  S
C312        C313   1.406       .  A
C312        F317   1.358       .  S
C313        C314   1.407       .  A
C314        F315   1.358       .  S
C319        C320   1.408       .  A
C319        C324   1.399       .  A
C319        F326   1.358       .  S
C320        C321   1.408       .  A
C321        C322   1.398       .  A
C321        F328   1.358       .  S
C322        C323   1.411       .  A
C322        F327   1.358   1_545  S
C323        C324   1.411       .  A
C324        F325   1.358       .  S
C329        C330   1.401       .  A
C329        C334   1.400       .  A
C329        C638   1.475       .  S
C330        C331   1.407       .  A
C330        H335   1.084       .  S
C331        C332   1.408       .  A
C331        C648   1.489       .  S
C332        C333   1.404       .  A
C332        H336   1.083       .  S
C333        C334   1.402       .  A
C333        C628   1.483       .  S
C334        H337   1.084       .  S
O338        C348   1.282       .  A
O339        C349   1.280       .  A
O339       Ni346   1.915   1_565  S
O340        C350   1.280       .  A
O340       Ni346   1.918   1_665  S
O341        C351   1.281       .  A
O342        C351   1.282   1_565  A
O342       Ni347   1.920       .  S
O343        C350   1.280       .  A
O344        C349   1.280       .  A
O345        C348   1.281   1_565  A
O345       Ni347   1.913   1_655  S
C348        C651   1.488       .  S
C349        C618   1.467       .  S
C350        C598   1.467       .  S
C351        C608   1.488       .  S
C352        C353   1.405       .  A
C352        C357   1.404       .  A
C352        C588   1.486       .  S
C353        C354   1.406       .  A
C353        H358   1.083       .  S
C354        C355   1.407       .  A
C354        C611   1.487       .  S
C355        C356   1.403       .  A
C355        H359   1.083       .  S
C356        C357   1.403       .  A
C356        C578   1.484       .  S
C357        H360   1.084       .  S
C361        C362   1.401       .  A
C361        C366   1.401       .  A
C361        C601   1.472       .  S
C362        C363   1.404       .  A
C362        H367   1.084       .  S
C363        C364   1.405       .  A
C363        C568   1.483       .  S
C364        C365   1.405       .  A
C364        H368   1.084       .  S
C365        C366   1.404       .  A
C365        C558   1.485       .  S
C366        H369   1.084       .  S
O370        C380   1.281       .  A
O370       Ni378   1.917   1_565  S
O371        C381   1.281       .  A
O371       Ni378   1.913       .  S
O372        C382   1.281       .  A
O372       Ni378   1.918       .  S
O373        C383   1.281       .  A
O373       Ni378   1.915   1_565  S
O374        C383   1.282       .  A
O374       Ni379   1.920       .  S
O375        C382   1.279   1_565  A
O375       Ni379   1.914       .  S
O376        C381   1.281   1_565  A
O376       Ni379   1.918       .  S
O377        C380   1.281       .  A
O377       Ni379   1.915       .  S
Ni378      Ni379   2.389   1_545  S
C380        C551   1.478       .  S
C381        C641   1.474       .  S
C382        C591   1.466       .  S
C383        C571   1.484       .  S
C384        C385   1.408       .  A
C384        C389   1.407       .  A
C384        C621   1.492       .  S
C385        C386   1.403       .  A
C385        H390   1.083       .  S
C386        C387   1.401       .  A
C386        C548   1.476       .  S
C387        C388   1.401       .  A
C387        H391   1.084       .  S
C388        C389   1.403       .  A
C388        C538   1.482       .  S
C389        H392   1.083       .  S
C393        C394   1.402       .  A
C393        C398   1.400       .  A
C393        C528   1.471       .  S
C394        C395   1.405       .  A
C394        H399   1.084       .  S
C395        C396   1.405       .  A
C395        C561   1.484       .  S
C396        C397   1.403       .  A
C396        H400   1.084       .  S
C397        C398   1.402       .  A
C397        C518   1.475       .  S
C398        H401   1.084       .  S
C402        C403   1.402       .  A
C402        C407   1.405       .  A
C402        C511   1.479       .  S
C403        C404   1.401       .  A
C403        H408   1.084       .  S
C404        C405   1.402       .  A
C404        C631   1.481       .  S
C405        C406   1.408       .  A
C405        H409   1.083       .  S
C406        C407   1.408       .  A
C406        C498   1.495       .  S
C407        H410   1.083       .  S
C411        C412   1.407       .  A
C411        C416   1.408       .  A
C411        C491   1.490       .  S
C412        C413   1.402       .  A
C412        H417   1.083       .  S
C413        C414   1.402       .  A
C413        C541   1.484       .  S
C414        C415   1.403       .  A
C414        H418   1.084       .  S
C415        C416   1.406       .  A
C415        C478   1.484       .  S
C416        H419   1.083       .  S
O420        C430   1.280       .  A
O420       Ni428   1.915       .  S
O421        C431   1.283       .  A
O422        C432   1.281       .  A
O422       Ni428   1.918   1_655  S
O423        C433   1.280       .  A
O424        C433   1.280       .  A
O424       Ni429   1.916       .  S
O425        C432   1.281       .  A
O426        C431   1.280       .  A
O426       Ni429   1.912   1_655  S
O427        C430   1.280       .  A
C430        C481   1.466       .  S
C431        C508   1.483       .  S
C432        C521   1.477       .  S
C433        C471   1.468       .  S
O434        C444   1.282       .  A
O434       Ni442   1.922       .  S
O435        C445   1.280       .  A
O435       Ni442   1.913       .  S
O436        C446   1.281       .  A
O436       Ni442   1.919       .  S
O437        C447   1.281       .  A
O437       Ni442   1.917       .  S
O438        C447   1.280       .  A
O438       Ni443   1.917       .  S
O439        C446   1.281       .  A
O439       Ni443   1.917       .  S
O440        C445   1.281       .  A
O440       Ni443   1.920       .  S
O441        C444   1.280       .  A
O441       Ni443   1.912       .  S
Ni442      Ni443   2.392       .  S
C444        C461   1.470       .  S
C445        C531   1.467       .  S
C446        C501   1.471       .  S
C447        C488   1.468       .  S
C448        C449   1.400       .  A
C448        C453   1.402       .  A
C448        C468   1.471       .  S
C449        C450   1.402       .  A
C449        H454   1.084       .  S
C450        C451   1.403       .  A
C450        C581   1.483       .  S
C451        C452   1.409       .  A
C451        H455   1.083       .  S
C452        C453   1.407       .  A
C452        C458   1.493       .  S
C453        H456   1.083       .  S
C457        C458   1.414       .  A
C457        C462   1.401       .  A
C457        F464   1.357       .  S
C458        C459   1.412       .  A
C459        C460   1.395       .  A
C459        F466   1.358       .  S
C460        C461   1.401       .  A
C460        F465   1.356       .  S
C461        C462   1.402       .  A
C462        F463   1.358       .  S
C467        C468   1.403       .  A
C467        C472   1.398       .  A
C467        F474   1.358       .  S
C468        C469   1.403       .  A
C469        C470   1.400       .  A
C469        F476   1.358       .  S
C470        C471   1.404       .  A
C470        F475   1.357       .  S
C471        C472   1.404       .  A
C472        F473   1.358       .  S
C477        C478   1.410       .  A
C477        C482   1.398       .  A
C477        F484   1.358       .  S
C478        C479   1.408       .  A
C479        C480   1.400       .  A
C479        F486   1.358       .  S
C480        C481   1.402       .  A
C480        F485   1.357       .  S
C481        C482   1.401       .  A
C482        F483   1.358       .  S
C487        C488   1.402       .  A
C487        C492   1.401       .  A
C487        F494   1.358       .  S
C488        C489   1.401       .  A
C489        C490   1.398       .  A
C489        F496   1.358       .  S
C490        C491   1.411       .  A
C490        F495   1.358       .  S
C491        C492   1.412       .  A
C492        F493   1.357       .  S
C497        C498   1.414       .  A
C497        C502   1.401       .  A
C497        F504   1.357       .  S
C498        C499   1.413       .  A
C499        C500   1.396       .  A
C499        F506   1.358       .  S
C500        C501   1.400       .  A
C500        F505   1.356       .  S
C501        C502   1.402       .  A
C502        F503   1.357       .  S
C507        C508   1.409       .  A
C507        C512   1.400       .  A
C507        F514   1.358       .  S
C508        C509   1.410       .  A
C509        C510   1.397       .  A
C509        F516   1.358       .  S
C510        C511   1.404       .  A
C510        F515   1.358       .  S
C511        C512   1.405       .  A
C512        F513   1.358       .  S
C517        C518   1.404       .  A
C517        C522   1.399       .  A
C517        F524   1.358       .  S
C518        C519   1.403       .  A
C519        C520   1.398       .  A
C519        F526   1.358       .  S
C520        C521   1.408       .  A
C520        F525   1.358       .  S
C521        C522   1.408       .  A
C522        F523   1.358       .  S
C527        C528   1.404       .  A
C527        C532   1.399       .  A
C527        F534   1.358       .  S
C528        C529   1.403       .  A
C529        C530   1.399       .  A
C529        F536   1.358       .  S
C530        C531   1.404       .  A
C530        F535   1.357       .  S
C531        C532   1.404       .  A
C532        F533   1.358       .  S
C537        C538   1.406       .  A
C537        C542   1.399       .  A
C537        F544   1.358       .  S
C538        C539   1.407       .  A
C539        C540   1.398       .  A
C539        F546   1.358       .  S
C540        C541   1.407       .  A
C540        F545   1.358       .  S
C541        C542   1.408       .  A
C542        F543   1.358       .  S
C547        C548   1.404       .  A
C547        C552   1.399       .  A
C547        F554   1.358       .  S
C548        C549   1.403       .  A
C549        C550   1.398       .  A
C549        F556   1.358       .  S
C550        C551   1.408       .  A
C550        F555   1.358       .  S
C551        C552   1.408       .  A
C552        F553   1.358       .  S
C557        C558   1.408       .  A
C557        C562   1.399       .  A
C557        F564   1.358       .  S
C558        C559   1.407       .  A
C559        C560   1.399       .  A
C559        F566   1.358       .  S
C560        C561   1.407       .  A
C560        F565   1.358       .  S
C561        C562   1.407       .  A
C562        F563   1.358       .  S
C567        C568   1.406       .  A
C567        C572   1.399       .  A
C567        F574   1.358       .  S
C568        C569   1.406       .  A
C569        C570   1.399       .  A
C569        F576   1.358       .  S
C570        C571   1.410       .  A
C570        F575   1.358       .  S
C571        C572   1.409       .  A
C572        F573   1.358       .  S
C577        C578   1.407       .  A
C577        C582   1.396       .  A
C577        F584   1.358       .  S
C578        C579   1.408       .  A
C579        C580   1.401       .  A
C579        F586   1.358       .  S
C580        C581   1.407       .  A
C580        F585   1.358       .  S
C581        C582   1.407       .  A
C582        F583   1.358       .  S
C587        C588   1.410       .  A
C587        C592   1.398       .  A
C587        F594   1.358       .  S
C588        C589   1.410       .  A
C589        C590   1.400       .  A
C589        F596   1.358       .  S
C590        C591   1.402       .  A
C590        F595   1.358   1_545  S
C591        C592   1.401       .  A
C592        F593   1.358       .  S
C597        C598   1.404       .  A
C597        C602   1.399       .  A
C597        F604   1.358       .  S
C598        C599   1.404       .  A
C599        C600   1.399       .  A
C599        F606   1.358       .  S
C600        C601   1.404       .  A
C600        F605   1.358       .  S
C601        C602   1.404       .  A
C602        F603   1.358       .  S
C607        C608   1.411       .  A
C607        C612   1.399       .  A
C607        F614   1.358   1_545  S
C608        C609   1.411       .  A
C609        C610   1.398       .  A
C609        F616   1.358       .  S
C610        C611   1.407       .  A
C610        F615   1.358       .  S
C611        C612   1.407       .  A
C612        F613   1.358       .  S
C617        C618   1.400       .  A
C617        C622   1.397       .  A
C617        F624   1.358       .  S
C618        C619   1.402       .  A
C619        C620   1.400       .  A
C619        F626   1.358       .  S
C620        C621   1.412       .  A
C620        F625   1.357       .  S
C621        C622   1.413       .  A
C622        F623   1.358       .  S
C627        C628   1.407       .  A
C627        C632   1.396       .  A
C627        F634   1.358       .  S
C628        C629   1.408       .  A
C629        C630   1.401       .  A
C629        F636   1.358       .  S
C630        C631   1.406       .  A
C630        F635   1.358       .  S
C631        C632   1.406       .  A
C632        F633   1.358       .  S
C637        C638   1.404       .  A
C637        C642   1.400       .  A
C637        F644   1.358       .  S
C638        C639   1.404       .  A
C639        C640   1.397       .  A
C639        F646   1.358       .  S
C640        C641   1.406       .  A
C640        F645   1.358       .  S
C641        C642   1.407       .  A
C642        F643   1.358       .  S
C647        C648   1.408       .  A
C647        C652   1.399       .  A
C647        F654   1.358       .  S
C648        C649   1.408       .  A
C649        C650   1.398       .  A
C649        F656   1.358       .  S
C650        C651   1.411       .  A
C650        F655   1.358   1_545  S
C651        C652   1.411       .  A
C652        F653   1.358       .  S
