geometry optimzed in LAMMPS
_audit_creation_date              2020-11-30 
_audit_creation_method            'lammps2cif' 
_symmetry_space_group_name_H-M    'P1' 
_symmetry_Int_Tables_number       1 
_symmetry_cell_setting            triclinic 
loop_ 
_symmetry_equiv_pos_as_xyz 
  x,y,z 
_cell_length_a                    49.5364244882589 
_cell_length_b                    48.58479591093733 
_cell_length_c                    38.44347075830292 
_cell_angle_alpha                 90.03429354899724 
_cell_angle_beta                  90.09256951171996 
_cell_angle_gamma                 90.10136608756999 
loop_ 
_atom_site_label 
_atom_site_type_symbol 
_atom_site_fract_x 
_atom_site_fract_y 
_atom_site_fract_z 
_atom_site_charge 
N1          N  0.41768857  0.09823413  0.08161189    -0.27310
N2          N  0.40893509  0.07498158  0.09545919    -0.35170
C3          C  0.42368535  0.05397185  0.08281021     0.01030
C4          C  0.44221510  0.06464604  0.05951702     0.07060
C5          C  0.43782038  0.09269256  0.05936997    -0.06040
H6          H  0.42062897  0.03253186  0.08932241     0.07730
H7          H  0.44855928  0.10800685  0.04433230     0.08930
Cu8        Cu  0.37620772  0.07337006  0.12906764     0.44170
Cu9        Cu  0.40248193  0.13659662  0.09377718     0.41990
Cu10       Cu  0.34900754  0.13974702  0.15685760     0.43880
N11         N  0.34303694  0.07794633  0.16150190    -0.34690
N12         N  0.33395049  0.10194033  0.17278522    -0.28950
C13         C  0.31292669  0.09755329  0.19419095    -0.05050
C14         C  0.30834258  0.06953228  0.19597293     0.07170
C15         C  0.32766145  0.05771242  0.17485627     0.00960
H16         H  0.30139477  0.11361922  0.20675194     0.08620
H17         H  0.33052219  0.03600054  0.16982167     0.07690
N18         N  0.36608126  0.17429908  0.13404694    -0.36140
N19         N  0.38562415  0.17300422  0.11087815    -0.28320
C20         C  0.39227801  0.19858731  0.10086277    -0.03560
C21         C  0.37606407  0.21732799  0.11852163     0.05050
C22         C  0.35967815  0.20082528  0.13934615     0.03140
H23         H  0.40787620  0.20261001  0.08202935     0.08250
H24         H  0.34408228  0.20734484  0.15712716     0.07080
O25         O  0.47034337  0.06086966  0.01018176    -0.72960
O26         O  0.02586019  0.02242636  0.45215956    -0.73940
O27         O  0.46828304  0.02238012  0.45475834    -0.62560
O28         O  0.02683390  0.06106254  0.00754669    -0.70970
O29         O  0.02849526  0.02657947  0.04540753    -0.70520
O30         O  0.46972506  0.98758746  0.49218732    -0.61780
O31         O  0.02654047  0.98772971  0.48975953    -0.74290
O32         O  0.47076496  0.02629654  0.04797006    -0.73070
Cu33       Cu  0.49779063  0.04281812  0.47978818     1.04560
Cu34       Cu  0.49892511  0.00583884  0.02023423     1.04330
C35         C  0.46196176  0.04979078  0.03826269     0.93240
C36         C  0.03488289  0.99900271  0.46176289     0.92380
C37         C  0.45984723  0.99890064  0.46503246     0.84520
C38         C  0.03670794  0.05011310  0.03489442     0.90790
N39         N  0.16777243  0.10256268  0.16471209    -0.27310
N40         N  0.15838455  0.07856288  0.15375153    -0.35170
C41         C  0.17291725  0.05826302  0.16838306     0.01030
C42         C  0.19197289  0.07007064  0.19004423     0.07060
C43         C  0.18811973  0.09814611  0.18723507    -0.06040
H44         H  0.16947246  0.03652220  0.16412709     0.07730
H45         H  0.19956903  0.11419583  0.20008344     0.08930
Cu46       Cu  0.12536650  0.07425578  0.12092493     0.44170
Cu47       Cu  0.15350085  0.14025704  0.14736159     0.41990
Cu48       Cu  0.09797771  0.13766146  0.08658775     0.43880
N49         N  0.09193636  0.07586074  0.08843533    -0.34690
N50         N  0.08268059  0.09903992  0.07495772    -0.28950
C51         C  0.06179900  0.09327351  0.05383807    -0.05050
C52         C  0.05745717  0.06518510  0.05442374     0.07170
C53         C  0.07680365  0.05472618  0.07673434     0.00960
H54         H  0.05039686  0.10847563  0.03946294     0.08620
H55         H  0.08000126  0.03335154  0.08342875     0.07690
N56         N  0.11584629  0.17397242  0.10303747    -0.36140
N57         N  0.13650612  0.17491954  0.12479878    -0.28320
C58         C  0.14357976  0.20134916  0.12991661    -0.03560
C59         C  0.12641510  0.21785710  0.11060065     0.05050
C60         C  0.10899493  0.19977499  0.09405103     0.03140
H61         H  0.15958039  0.20802138  0.14716190     0.08250
H62         H  0.09261701  0.20496081  0.07660744     0.07080
N63         N  0.32798923  0.95537672  0.33238515    -0.27310
N64         N  0.33732931  0.97867231  0.34556933    -0.35170
C65         C  0.32288631  0.99978595  0.33259654     0.01030
C66         C  0.30394591  0.98917251  0.30974209     0.07060
C67         C  0.30778620  0.96102574  0.31018199    -0.06040
H68         H  0.32644987  0.02125401  0.33855997     0.07730
H69         H  0.29661588  0.94572684  0.29557913     0.08930
Cu70       Cu  0.37045953  0.98042078  0.37864607     0.44170
Cu71       Cu  0.34259022  0.91681446  0.34532552     0.41990
Cu72       Cu  0.39873586  0.91443474  0.40494708     0.43880
N73         N  0.40395974  0.97616422  0.41071174    -0.34690
N74         N  0.41347134  0.95219385  0.42144999    -0.28950
C75         C  0.43450369  0.95663557  0.44290761    -0.05050
C76         C  0.43867152  0.98469250  0.44527030     0.07170
C77         C  0.41908562  0.99647385  0.42445116     0.00960
H78         H  0.44630152  0.94059825  0.45513554     0.08620
H79         H  0.41585659  0.01819830  0.41992203     0.07690
N80         N  0.38103271  0.87965885  0.38354319    -0.36140
N81         N  0.36004300  0.88054660  0.36231935    -0.28320
C82         C  0.35294589  0.85472848  0.35360930    -0.03560
C83         C  0.37044724  0.83670405  0.36996929     0.05050
C84         C  0.38810653  0.85324658  0.38854529     0.03140
H85         H  0.33663509  0.84955304  0.33602825     0.08250
H86         H  0.40471172  0.84658179  0.40478088     0.07080
O87         O  0.27571809  0.02777659  0.29810888    -0.72960
O88         O  0.22036783  0.06698736  0.23963757    -0.73940
O89         O  0.21796042  0.02803651  0.29505413    -0.62560
O90         O  0.27717066  0.06668958  0.24261997    -0.70970
O91         O  0.27847819  0.03198762  0.20500309    -0.70520
O92         O  0.21943677  0.99366054  0.25697907    -0.61780
O93         O  0.22091663  0.03234109  0.20190394    -0.74290
O94         O  0.27594889  0.99327034  0.26017260    -0.73070
Cu95       Cu  0.24777228  0.04857603  0.27027482     1.04560
Cu96       Cu  0.24873975  0.01168429  0.22964121     1.04330
C97         C  0.28435280  0.00421764  0.28837348     0.93240
C98         C  0.21201694  0.05579953  0.21153391     0.92380
C99         C  0.20951804  0.00465339  0.28424725     0.84520
C100        C  0.28703424  0.05539173  0.21547597     0.90670
N101        N  0.16222309  0.95632627  0.32251978    -0.27310
N102        N  0.15384039  0.97941308  0.33713578    -0.35170
C103        C  0.16954636  0.00033799  0.32619789     0.01030
C104        C  0.18838460  0.98982667  0.30326231     0.07060
C105        C  0.18312807  0.96193737  0.30148754    -0.06040
H106        H  0.16715302  0.02160389  0.33394919     0.07730
H107        H  0.19398846  0.94673080  0.28646039     0.08930
Cu108      Cu  0.12100444  0.98102413  0.37047341     0.44170
Cu109      Cu  0.14621516  0.91791360  0.33321511     0.41990
Cu110      Cu  0.09514196  0.91475646  0.39984447     0.43880
N111        N  0.08854859  0.97647838  0.40402253    -0.34690
N112        N  0.07999901  0.95247792  0.41600589    -0.28950
C113        C  0.05972185  0.95683252  0.43857699    -0.05050
C114        C  0.05506460  0.98483939  0.44040729     0.07170
C115        C  0.07356361  0.99667934  0.41808283     0.00960
H116        H  0.04887819  0.94076490  0.45216580     0.08620
H117        H  0.07632665  0.01839900  0.41297444     0.07690
N118        N  0.11172234  0.88017658  0.37645379    -0.36140
N119        N  0.13017406  0.88143890  0.35174616    -0.28320
C120        C  0.13672370  0.85577030  0.34187261    -0.03560
C121        C  0.12173807  0.83727154  0.36141235     0.05050
C122        C  0.10598936  0.85360929  0.38293042     0.03140
H123        H  0.15106068  0.85116093  0.32154326     0.08250
H124        H  0.09159290  0.84673282  0.40219778     0.07080
N125        N  0.41556379  0.59948777  0.39569927    -0.27310
N126        N  0.40620017  0.57622753  0.38244135    -0.35170
C127        C  0.42099612  0.55512912  0.39475629     0.01030
C128        C  0.44020642  0.56570708  0.41725049     0.07060
C129        C  0.43615165  0.59382214  0.41729797    -0.06040
H130        H  0.41761486  0.53369746  0.38842004     0.07730
H131        H  0.44753335  0.60910299  0.43165888     0.08930
Cu132      Cu  0.37288922  0.57446701  0.34968889     0.44170
Cu133      Cu  0.40075170  0.63805544  0.38326035     0.41990
Cu134      Cu  0.34467344  0.64042501  0.32350079     0.43880
N135        N  0.33960643  0.57871257  0.31726407    -0.34690
N136        N  0.33015039  0.60270135  0.30651567    -0.28950
C137        C  0.30950747  0.59828528  0.28442777    -0.05050
C138        C  0.30552615  0.57022076  0.28166197     0.07170
C139        C  0.32481711  0.55840946  0.30290893     0.00960
H140        H  0.29792465  0.61433579  0.27189026     0.08620
H141        H  0.32818927  0.53666999  0.30713944     0.07690
N142        N  0.36227080  0.67519336  0.34510133    -0.36140
N143        N  0.38323326  0.67430853  0.36637105    -0.28320
C144        C  0.39030707  0.70012478  0.37511941    -0.03560
C145        C  0.37281826  0.71814677  0.35873735     0.05050
C146        C  0.35518984  0.70160516  0.34011063     0.03140
H147        H  0.40660958  0.70530102  0.39271313     0.08250
H148        H  0.33861768  0.70827261  0.32382100     0.07080
N149        N  0.41511026  0.45288302  0.05547184    -0.27310
N150        N  0.40609689  0.47690526  0.06675011    -0.35170
C151        C  0.42108955  0.49713400  0.05268127     0.01030
C152        C  0.44006186  0.48527639  0.03108171     0.07060
C153        C  0.43568770  0.45723954  0.03334444    -0.06040
H154        H  0.41808909  0.51887170  0.05739040     0.07730
H155        H  0.44698627  0.44115672  0.02046961     0.08930
Cu156      Cu  0.37320197  0.48149566  0.09961749     0.44170
Cu157      Cu  0.40030718  0.41512558  0.07202192     0.41990
Cu158      Cu  0.34699800  0.41833726  0.13537089     0.43880
N159        N  0.34025374  0.47989263  0.13283803    -0.34690
N160        N  0.33149511  0.45669678  0.14683182    -0.28950
C161        C  0.31091517  0.46225369  0.16837181    -0.05050
C162        C  0.30624452  0.49024421  0.16759572     0.07170
C163        C  0.32507805  0.50087145  0.14468652     0.00960
H164        H  0.29996691  0.44696791  0.18320481     0.08620
H165        H  0.32792413  0.52225209  0.13772304     0.07690
N166        N  0.36391516  0.38192807  0.11841881    -0.36140
N167        N  0.38337752  0.38061204  0.09513858    -0.28320
C168        C  0.38976260  0.35408095  0.08985222    -0.03560
C169        C  0.37344925  0.33759840  0.11079827     0.05050
C170        C  0.35730031  0.35635565  0.12852435     0.03140
H171        H  0.40527276  0.34754374  0.07195826     0.08250
H172        H  0.34175676  0.35234812  0.14743880     0.07080
N173        N  0.16350702  0.60240838  0.30257239    -0.27310
N174        N  0.15485526  0.57847145  0.31464027    -0.35170
C175        C  0.17020092  0.55822875  0.30135427     0.01030
C176        C  0.18906387  0.56996854  0.27946272     0.07060
C177        C  0.18423384  0.59796189  0.28072467    -0.06040
H178        H  0.16754994  0.53655456  0.30685185     0.07730
H179        H  0.19533729  0.61397340  0.26737910     0.08930
Cu180      Cu  0.12212496  0.57403262  0.34774985     0.44170
Cu181      Cu  0.14812201  0.64021431  0.31798099     0.41990
Cu182      Cu  0.09695354  0.63725836  0.38449731     0.43880
N183        N  0.08955674  0.57570517  0.38149877    -0.34690
N184        N  0.08122024  0.59886263  0.39597519    -0.28950
C185        C  0.06077130  0.59326991  0.41774754    -0.05050
C186        C  0.05576173  0.56531199  0.41661002     0.07170
C187        C  0.07426242  0.55474431  0.39326211     0.00960
H188        H  0.05013591  0.60850774  0.43299025     0.08620
H189        H  0.07682851  0.53340072  0.38595858     0.07690
N190        N  0.11290467  0.67367821  0.36564699    -0.36140
N191        N  0.13139077  0.67487360  0.34097755    -0.28320
C192        C  0.13710552  0.70142505  0.33436011    -0.03560
C193        C  0.12130942  0.71782102  0.35575090     0.05050
C194        C  0.10631812  0.69937264  0.37535991     0.03140
H195        H  0.15154755  0.70824817  0.31511916     0.08250
H196        H  0.09197755  0.70403296  0.39566562     0.07080
O197        O  0.02715113  0.52261654  0.01979235    -0.72960
O198        O  0.46990808  0.56161627  0.46514211    -0.73940
O199        O  0.46954235  0.52285556  0.02033438    -0.62560
O200        O  0.02645893  0.56137321  0.46474033    -0.70970
O201        O  0.02663052  0.52701193  0.42659050    -0.70520
O202        O  0.46952857  0.48818757  0.48262408    -0.61780
O203        O  0.46885256  0.52715480  0.42715414    -0.74290
O204        O  0.02636012  0.48801836  0.48198557    -0.73070
Cu205      Cu  0.49827366  0.54324522  0.49388329     1.04560
Cu206      Cu  0.49782082  0.50639128  0.45316979     1.04330
C207        C  0.03572295  0.49918881  0.00956159     0.93240
C208        C  0.46052842  0.55067910  0.43744964     0.92380
C209        C  0.46065444  0.49944276  0.01036291     0.84520
C210        C  0.03538680  0.55042155  0.43687878     0.90790
O211        O  0.21863696  0.53236665  0.26950768    -0.72960
O212        O  0.27634620  0.49399249  0.21515458    -0.73940
O213        O  0.27625236  0.53252137  0.27054153    -0.62560
O214        O  0.21982531  0.49365152  0.21415123    -0.70970
O215        O  0.21947930  0.52813412  0.17623219    -0.70520
O216        O  0.27612701  0.56727709  0.23301201    -0.61780
O217        O  0.27722073  0.52851656  0.17730282    -0.74290
O218        O  0.21929162  0.56702941  0.23185398    -0.73070
Cu219      Cu  0.24774671  0.51200014  0.24371858     1.04560
Cu220      Cu  0.24803545  0.54894676  0.20319720     1.04330
C221        C  0.20995383  0.55577218  0.25932875     0.93240
C222        C  0.28572074  0.50506455  0.18760006     0.92380
C223        C  0.28502933  0.55600107  0.26074638     0.84520
C224        C  0.21096220  0.50456647  0.18620903     0.90790
N225        N  0.08147723  0.45231599  0.05362927    -0.27310
N226        N  0.09091630  0.47626049  0.06470913    -0.35170
C227        C  0.07593909  0.49660771  0.05096097     0.01030
C228        C  0.05651663  0.48489001  0.02977288     0.07060
C229        C  0.06063142  0.45682179  0.03191856    -0.06040
H230        H  0.07922014  0.51831930  0.05564717     0.07730
H231        H  0.04895666  0.44082395  0.01930454     0.08930
Cu232      Cu  0.12423867  0.48044901  0.09703031     0.44170
Cu233      Cu  0.09611003  0.41453980  0.07007905     0.41990
Cu234      Cu  0.15169885  0.41692221  0.13077567     0.43880
N235        N  0.15737154  0.47877922  0.13000404    -0.34690
N236        N  0.16661650  0.45554123  0.14333062    -0.28950
C237        C  0.18699187  0.46129186  0.16527254    -0.05050
C238        C  0.19101587  0.48943753  0.16538771     0.07170
C239        C  0.17201979  0.49994062  0.14261599     0.00960
H240        H  0.19818864  0.44606075  0.17986466     0.08620
H241        H  0.16860964  0.52136885  0.13638591     0.07690
N242        N  0.13396180  0.38065390  0.11386197    -0.36140
N243        N  0.11327927  0.37978738  0.09213143    -0.28320
C244        C  0.10622666  0.35337762  0.08680527    -0.03560
C245        C  0.12342709  0.33679288  0.10595682     0.05050
C246        C  0.14084727  0.35481240  0.12262237     0.03140
H247        H  0.09018322  0.34677999  0.06958031     0.08250
H248        H  0.15721655  0.34955732  0.14004571     0.07080
C249        C  0.12193649  0.80671737  0.35964421    -0.05480
C250        C  0.09865193  0.79199711  0.36908150    -0.32910
C251        C  0.09807803  0.76318088  0.36810585     0.36340
C252        C  0.12110640  0.74837977  0.35742291    -0.05840
C253        C  0.14438859  0.76310016  0.34796532    -0.32810
C254        C  0.14496159  0.79191956  0.34894094     0.36240
H255        H  0.08053636  0.80283467  0.37679175     0.16610
O256        O  0.07444467  0.74986221  0.37601694    -0.60310
H257        H  0.16250459  0.75226190  0.34025922     0.16630
O258        O  0.16859215  0.80524252  0.34102762    -0.60410
H259        H  0.17033451  0.80387656  0.31538402     0.43620
H260        H  0.07267650  0.75126857  0.40165431     0.43580
C261        C  0.37082667  0.80636320  0.36731691    -0.05480
C262        C  0.39564033  0.79253687  0.36570004    -0.32910
C263        C  0.39657722  0.76386430  0.36247765     0.36340
C264        C  0.37244321  0.74848710  0.36137532    -0.05840
C265        C  0.34763052  0.76231319  0.36298554    -0.32810
C266        C  0.34669342  0.79098514  0.36620810     0.36240
H267        H  0.41439053  0.80404883  0.36617460     0.16610
O268        O  0.42118083  0.75118389  0.35953952    -0.60310
H269        H  0.32888064  0.75080055  0.36250890     0.16630
O270        O  0.32208906  0.80366404  0.36914177    -0.60410
H271        H  0.31879890  0.80519337  0.39450947     0.43620
H272        H  0.42446629  0.74965043  0.33417114     0.43580
C273        C  0.12392537  0.30636666  0.10729969    -0.05480
C274        C  0.14879420  0.29263269  0.10911797    -0.32910
C275        C  0.14992061  0.26385554  0.10975272     0.36340
C276        C  0.12589886  0.24827849  0.10912479    -0.05840
C277        C  0.10102789  0.26200947  0.10727877    -0.32810
C278        C  0.09990072  0.29078964  0.10664443     0.36240
H279        H  0.16749337  0.30423213  0.10928603     0.16610
O280        O  0.17464501  0.25120699  0.11011005    -0.60310
H281        H  0.08232987  0.25040801  0.10712183     0.16630
O282        O  0.07517556  0.30343770  0.10629514    -0.60410
H283        H  0.07081679  0.30687234  0.13108918     0.43620
H284        H  0.17899258  0.24774132  0.08531965     0.43580
C285        C  0.37579221  0.24811449  0.11616013    -0.05480
C286        C  0.35780480  0.26314477  0.13708730    -0.32910
C287        C  0.35653371  0.29189967  0.13571588     0.36340
C288        C  0.37370435  0.30681215  0.11316240    -0.05840
C289        C  0.39168701  0.29178043  0.09223375    -0.32810
C290        C  0.39295138  0.26302779  0.09359526     0.36240
H291        H  0.34434757  0.25279968  0.15490116     0.16610
O292        O  0.33851915  0.30488094  0.15710554    -0.60310
H293        H  0.40514920  0.30212128  0.07442332     0.16630
O294        O  0.41093978  0.25004827  0.07216809    -0.60410
H295        H  0.42844749  0.25073286  0.08470721     0.43620
H296        H  0.32103628  0.30423435  0.14450604     0.43580
N297        N  0.41768869  0.09823412  0.58161205    -0.27310
N298        N  0.40893514  0.07498157  0.59545928    -0.35170
C299        C  0.42368536  0.05397183  0.58281022     0.01030
C300        C  0.44221513  0.06464601  0.55951707     0.07060
C301        C  0.43782048  0.09269254  0.55937011    -0.06040
H302        H  0.42062892  0.03253182  0.58932235     0.07730
H303        H  0.44855942  0.10800684  0.54433250     0.08930
Cu304      Cu  0.37620775  0.07337005  0.62906768     0.44170
Cu305      Cu  0.40248214  0.13659662  0.59377746     0.41990
Cu306      Cu  0.34900739  0.13974701  0.65685736     0.43880
N307        N  0.34303693  0.07794631  0.66150188    -0.34690
N308        N  0.33395041  0.10194032  0.67278509    -0.28950
C309        C  0.31292661  0.09755329  0.69419082    -0.05050
C310        C  0.30834257  0.06953227  0.69597290     0.07170
C311        C  0.32766147  0.05771240  0.67485631     0.00960
H312        H  0.30139464  0.11361922  0.70675173     0.08620
H313        H  0.33052227  0.03600052  0.66982179     0.07690
N314        N  0.36608119  0.17429907  0.63404680    -0.36140
N315        N  0.38562427  0.17300421  0.61087829    -0.28320
C316        C  0.39227821  0.19858732  0.60086302    -0.03560
C317        C  0.37606407  0.21732798  0.61852160     0.05050
C318        C  0.35967799  0.20082526  0.63934588     0.03140
H319        H  0.40787662  0.20261003  0.58202990     0.08250
H320        H  0.34408194  0.20734481  0.65712663     0.07080
O321        O  0.47034337  0.06086964  0.51018178    -0.72960
O322        O  0.02586019  0.02242636  0.95215957    -0.73940
O323        O  0.46828304  0.02238012  0.95475834    -0.62560
O324        O  0.02683389  0.06106253  0.50754669    -0.70970
O325        O  0.02849526  0.02657946  0.54540752    -0.70520
O326        O  0.46972505  0.98758748  0.99218734    -0.61780
O327        O  0.02654047  0.98772972  0.98975954    -0.74290
O328        O  0.47076496  0.02629651  0.54797006    -0.73070
Cu329      Cu  0.49779064  0.04281813  0.97978817     1.04560
Cu330      Cu  0.49892512  0.00583882  0.52023422     1.04330
C331        C  0.46196176  0.04979075  0.53826271     0.93240
C332        C  0.03488289  0.99900272  0.96176291     0.92380
C333        C  0.45984722  0.99890065  0.96503247     0.84520
C334        C  0.03670794  0.05011310  0.53489442     0.90790
N335        N  0.16777239  0.10256265  0.66471215    -0.27310
N336        N  0.15838453  0.07856286  0.65375156    -0.35170
C337        C  0.17291725  0.05826300  0.66838305     0.01030
C338        C  0.19197288  0.07007062  0.69004425     0.07060
C339        C  0.18811969  0.09814608  0.68723512    -0.06040
H340        H  0.16947247  0.03652217  0.66412706     0.07730
H341        H  0.19956897  0.11419581  0.70008351     0.08930
Cu342      Cu  0.12536648  0.07425577  0.62092494     0.44170
Cu343      Cu  0.15350079  0.14025702  0.64736170     0.41990
Cu344      Cu  0.09797768  0.13766146  0.58658781     0.43880
N345        N  0.09193634  0.07586074  0.58843535    -0.34690
N346        N  0.08268057  0.09903992  0.57495776    -0.28950
C347        C  0.06179898  0.09327351  0.55383811    -0.05050
C348        C  0.05745716  0.06518510  0.55442375     0.07170
C349        C  0.07680364  0.05472617  0.57673434     0.00960
H350        H  0.05039683  0.10847563  0.53946298     0.08620
H351        H  0.08000127  0.03335153  0.58342874     0.07690
N352        N  0.11584628  0.17397241  0.60303754    -0.36140
N353        N  0.13650610  0.17491952  0.62479888    -0.28320
C354        C  0.14357975  0.20134913  0.62991671    -0.03560
C355        C  0.12641512  0.21785709  0.61060073     0.05050
C356        C  0.10899495  0.19977499  0.59405108     0.03140
H357        H  0.15958036  0.20802134  0.64716202     0.08250
H358        H  0.09261704  0.20496082  0.57660748     0.07080
N359        N  0.32798923  0.95537674  0.83238517    -0.27310
N360        N  0.33732930  0.97867232  0.84556937    -0.35170
C361        C  0.32288630  0.99978597  0.83259657     0.01030
C362        C  0.30394591  0.98917252  0.80974210     0.07060
C363        C  0.30778620  0.96102575  0.81018200    -0.06040
H364        H  0.32644985  0.02125402  0.83856001     0.07730
H365        H  0.29661590  0.94572685  0.79557914     0.08930
Cu366      Cu  0.37045950  0.98042079  0.87864613     0.44170
Cu367      Cu  0.34259022  0.91681448  0.84532555     0.41990
Cu368      Cu  0.39873584  0.91443475  0.90494712     0.43880
N369        N  0.40395972  0.97616423  0.91071179    -0.34690
N370        N  0.41347132  0.95219385  0.92145004    -0.28950
C371        C  0.43450368  0.95663558  0.94290764    -0.05050
C372        C  0.43867151  0.98469251  0.94527033     0.07170
C373        C  0.41908560  0.99647386  0.92445120     0.00960
H374        H  0.44630152  0.94059826  0.95513556     0.08620
H375        H  0.41585658  0.01819831  0.91992207     0.07690
N376        N  0.38103270  0.87965885  0.88354321    -0.36140
N377        N  0.36004300  0.88054662  0.86231936    -0.28320
C378        C  0.35294589  0.85472850  0.85360931    -0.03560
C379        C  0.37044724  0.83670406  0.86996929     0.05050
C380        C  0.38810653  0.85324659  0.88854530     0.03140
H381        H  0.33663509  0.84955306  0.83602825     0.08250
H382        H  0.40471170  0.84658179  0.90478089     0.07080
O383        O  0.27571809  0.02777660  0.79810888    -0.72960
O384        O  0.22036782  0.06698734  0.73963757    -0.73940
O385        O  0.21796042  0.02803651  0.79505413    -0.62560
O386        O  0.27717065  0.06668957  0.74261995    -0.70970
O387        O  0.27847818  0.03198760  0.70500309    -0.70520
O388        O  0.21943677  0.99366054  0.75697908    -0.61780
O389        O  0.22091663  0.03234107  0.70190394    -0.74290
O390        O  0.27594889  0.99327034  0.76017262    -0.73070
Cu391      Cu  0.24777228  0.04857603  0.77027482     1.04560
Cu392      Cu  0.24873975  0.01168428  0.72964122     1.04330
C393        C  0.28435280  0.00421765  0.78837349     0.93240
C394        C  0.21201693  0.05579951  0.71153391     0.92380
C395        C  0.20951805  0.00465339  0.78424726     0.84520
C396        C  0.28703423  0.05539172  0.71547596     0.90670
N397        N  0.16222307  0.95632628  0.82251977    -0.27310
N398        N  0.15384038  0.97941309  0.83713578    -0.35170
C399        C  0.16954636  0.00033799  0.82619790     0.01030
C400        C  0.18838459  0.98982668  0.80326232     0.07060
C401        C  0.18312805  0.96193737  0.80148754    -0.06040
H402        H  0.16715302  0.02160389  0.83394920     0.07730
H403        H  0.19398844  0.94673081  0.78646039     0.08930
Cu404      Cu  0.12100443  0.98102414  0.87047341     0.44170
Cu405      Cu  0.14621514  0.91791361  0.83321510     0.41990
Cu406      Cu  0.09514197  0.91475647  0.89984449     0.43880
N407        N  0.08854859  0.97647839  0.90402255    -0.34690
N408        N  0.07999901  0.95247793  0.91600591    -0.28950
C409        C  0.05972186  0.95683253  0.93857702    -0.05050
C410        C  0.05506460  0.98483939  0.94040731     0.07170
C411        C  0.07356361  0.99667934  0.91808284     0.00960
H412        H  0.04887820  0.94076491  0.95216583     0.08620
H413        H  0.07632664  0.01839901  0.91297445     0.07690
N414        N  0.11172234  0.88017659  0.87645380    -0.36140
N415        N  0.13017405  0.88143892  0.85174616    -0.28320
C416        C  0.13672369  0.85577031  0.84187261    -0.03560
C417        C  0.12173807  0.83727155  0.86141236     0.05050
C418        C  0.10598937  0.85360930  0.88293043     0.03140
H419        H  0.15106067  0.85116095  0.82154325     0.08250
H420        H  0.09159292  0.84673283  0.90219781     0.07080
N421        N  0.41556378  0.59948778  0.89569927    -0.27310
N422        N  0.40620016  0.57622754  0.88244135    -0.35170
C423        C  0.42099611  0.55512913  0.89475629     0.01030
C424        C  0.44020641  0.56570710  0.91725048     0.07060
C425        C  0.43615165  0.59382216  0.91729797    -0.06040
H426        H  0.41761486  0.53369748  0.88842004     0.07730
H427        H  0.44753334  0.60910301  0.93165888     0.08930
Cu428      Cu  0.37288921  0.57446702  0.84968890     0.44170
Cu429      Cu  0.40075168  0.63805546  0.88326036     0.41990
Cu430      Cu  0.34467341  0.64042501  0.82350080     0.43880
N431        N  0.33960643  0.57871258  0.81726407    -0.34690
N432        N  0.33015037  0.60270135  0.80651567    -0.28950
C433        C  0.30950746  0.59828528  0.78442777    -0.05050
C434        C  0.30552615  0.57022075  0.78166196     0.07170
C435        C  0.32481711  0.55840946  0.80290892     0.00960
H436        H  0.29792464  0.61433579  0.77189026     0.08620
H437        H  0.32818927  0.53666999  0.80713944     0.07690
N438        N  0.36227077  0.67519337  0.84510134    -0.36140
N439        N  0.38323323  0.67430855  0.86637105    -0.28320
C440        C  0.39030704  0.70012480  0.87511940    -0.03560
C441        C  0.37281823  0.71814678  0.85873735     0.05050
C442        C  0.35518981  0.70160517  0.84011064     0.03140
H443        H  0.40660956  0.70530104  0.89271312     0.08250
H444        H  0.33861765  0.70827262  0.82382101     0.07080
N445        N  0.41511039  0.45288302  0.55547204    -0.27310
N446        N  0.40609696  0.47690526  0.56675022    -0.35170
C447        C  0.42108956  0.49713401  0.55268130     0.01030
C448        C  0.44006191  0.48527639  0.53108179     0.07060
C449        C  0.43568782  0.45723954  0.53334462    -0.06040
H450        H  0.41808905  0.51887171  0.55739035     0.07730
H451        H  0.44698643  0.44115672  0.52046985     0.08930
Cu452      Cu  0.37320199  0.48149565  0.59961753     0.44170
Cu453      Cu  0.40030740  0.41512557  0.57202223     0.41990
Cu454      Cu  0.34699775  0.41833721  0.63537053     0.43880
N455        N  0.34025370  0.47989261  0.63283797    -0.34690
N456        N  0.33149498  0.45669674  0.64683162    -0.28950
C457        C  0.31091503  0.46225365  0.66837161    -0.05050
C458        C  0.30624448  0.49024419  0.66759567     0.07170
C459        C  0.32507807  0.50087145  0.64468655     0.00960
H460        H  0.29996671  0.44696786  0.68320451     0.08620
H461        H  0.32792422  0.52225210  0.63772319     0.07690
N462        N  0.36391502  0.38192803  0.61841859    -0.36140
N463        N  0.38337763  0.38061202  0.59513870    -0.28320
C464        C  0.38976279  0.35408094  0.58985247    -0.03560
C465        C  0.37344922  0.33759838  0.61079820     0.05050
C466        C  0.35730006  0.35635560  0.62852398     0.03140
H467        H  0.40527318  0.34754374  0.57195881     0.08250
H468        H  0.34175624  0.35234805  0.64743806     0.07080
N469        N  0.16350703  0.60240838  0.80257240    -0.27310
N470        N  0.15485526  0.57847146  0.81464028    -0.35170
C471        C  0.17020092  0.55822876  0.80135428     0.01030
C472        C  0.18906387  0.56996854  0.77946274     0.07060
C473        C  0.18423385  0.59796189  0.78072469    -0.06040
H474        H  0.16754994  0.53655456  0.80685186     0.07730
H475        H  0.19533731  0.61397340  0.76737912     0.08930
Cu476      Cu  0.12212496  0.57403263  0.84774985     0.44170
Cu477      Cu  0.14812202  0.64021431  0.81798100     0.41990
Cu478      Cu  0.09695356  0.63725838  0.88449732     0.43880
N479        N  0.08955674  0.57570519  0.88149877    -0.34690
N480        N  0.08122025  0.59886265  0.89597521    -0.28950
C481        C  0.06077131  0.59326993  0.91774756    -0.05050
C482        C  0.05576173  0.56531201  0.91661002     0.07170
C483        C  0.07426241  0.55474433  0.89326212     0.00960
H484        H  0.05013592  0.60850777  0.93299027     0.08620
H485        H  0.07682850  0.53340074  0.88595857     0.07690
N486        N  0.11290469  0.67367822  0.86564701    -0.36140
N487        N  0.13139079  0.67487361  0.84097757    -0.28320
C488        C  0.13710554  0.70142506  0.83436012    -0.03560
C489        C  0.12130944  0.71782103  0.85575091     0.05050
C490        C  0.10631814  0.69937265  0.87535993     0.03140
H491        H  0.15154757  0.70824818  0.81511917     0.08250
H492        H  0.09197757  0.70403297  0.89566564     0.07080
O493        O  0.02715114  0.52261653  0.51979235    -0.72960
O494        O  0.46990807  0.56161628  0.96514211    -0.73940
O495        O  0.46954236  0.52285556  0.52033441    -0.62560
O496        O  0.02645892  0.56137323  0.96474033    -0.70970
O497        O  0.02663051  0.52701196  0.92659049    -0.70520
O498        O  0.46952856  0.48818757  0.98262403    -0.61780
O499        O  0.46885257  0.52715482  0.92715412    -0.74290
O500        O  0.02636011  0.48801838  0.98198556    -0.73070
Cu501      Cu  0.49827365  0.54324523  0.99388329     1.04560
Cu502      Cu  0.49782082  0.50639130  0.95316978     1.04330
C503        C  0.03572296  0.49918879  0.50956160     0.93240
C504        C  0.46052842  0.55067912  0.93744963     0.92380
C505        C  0.46065446  0.49944276  0.51036296     0.84520
C506        C  0.03538679  0.55042158  0.93687878     0.90790
O507        O  0.21863696  0.53236665  0.76950770    -0.72960
O508        O  0.27634618  0.49399247  0.71515456    -0.73940
O509        O  0.27625237  0.53252136  0.77054152    -0.62560
O510        O  0.21982530  0.49365152  0.71415125    -0.70970
O511        O  0.21947929  0.52813412  0.67623220    -0.70520
O512        O  0.27612701  0.56727709  0.73301201    -0.61780
O513        O  0.27722072  0.52851656  0.67730282    -0.74290
O514        O  0.21929162  0.56702941  0.73185399    -0.73070
Cu515      Cu  0.24774672  0.51200014  0.74371858     1.04560
Cu516      Cu  0.24803544  0.54894676  0.70319720     1.04330
C517        C  0.20995384  0.55577218  0.75932877     0.93240
C518        C  0.28572072  0.50506454  0.68760004     0.92380
C519        C  0.28502934  0.55600107  0.76074637     0.84520
C520        C  0.21096220  0.50456647  0.68620905     0.90790
N521        N  0.08147724  0.45231597  0.55362928    -0.27310
N522        N  0.09091630  0.47626046  0.56470914    -0.35170
C523        C  0.07593909  0.49660769  0.55096099     0.01030
C524        C  0.05651663  0.48488999  0.52977289     0.07060
C525        C  0.06063143  0.45682176  0.53191856    -0.06040
H526        H  0.07922014  0.51831928  0.55564720     0.07730
H527        H  0.04895667  0.44082393  0.51930454     0.08930
Cu528      Cu  0.12423866  0.48044899  0.59703033     0.44170
Cu529      Cu  0.09611005  0.41453977  0.57007904     0.41990
Cu530      Cu  0.15169887  0.41692221  0.63077567     0.43880
N531        N  0.15737153  0.47877921  0.63000406    -0.34690
N532        N  0.16661651  0.45554122  0.64333063    -0.28950
C533        C  0.18699188  0.46129186  0.66527255    -0.05050
C534        C  0.19101586  0.48943753  0.66538773     0.07170
C535        C  0.17201977  0.49994062  0.64261601     0.00960
H536        H  0.19818865  0.44606075  0.67986466     0.08620
H537        H  0.16860962  0.52136885  0.63638594     0.07690
N538        N  0.13396183  0.38065390  0.61386198    -0.36140
N539        N  0.11327931  0.37978736  0.59213143    -0.28320
C540        C  0.10622670  0.35337760  0.58680528    -0.03560
C541        C  0.12342713  0.33679287  0.60595685     0.05050
C542        C  0.14084730  0.35481240  0.62262239     0.03140
H543        H  0.09018326  0.34677996  0.56958032     0.08250
H544        H  0.15721657  0.34955733  0.64004575     0.07080
C545        C  0.12193650  0.80671738  0.85964423    -0.05480
C546        C  0.09865194  0.79199712  0.86908152    -0.32910
C547        C  0.09807805  0.76318089  0.86810587     0.36340
C548        C  0.12110642  0.74837978  0.85742292    -0.05840
C549        C  0.14438860  0.76310017  0.84796532    -0.32810
C550        C  0.14496160  0.79191958  0.84894095     0.36240
H551        H  0.08053637  0.80283468  0.87679177     0.16610
O552        O  0.07444469  0.74986221  0.87601696    -0.60310
H553        H  0.16250460  0.75226192  0.84025922     0.16630
O554        O  0.16859216  0.80524254  0.84102762    -0.60410
H555        H  0.17033451  0.80387658  0.81538402     0.43620
H556        H  0.07267652  0.75126858  0.90165433     0.43580
C557        C  0.37082666  0.80636322  0.86731690    -0.05480
C558        C  0.39564032  0.79253688  0.86570000    -0.32910
C559        C  0.39657720  0.76386431  0.86247761     0.36340
C560        C  0.37244319  0.74848711  0.86137530    -0.05840
C561        C  0.34763050  0.76231320  0.86298555    -0.32810
C562        C  0.34669340  0.79098516  0.86620811     0.36240
H563        H  0.41439052  0.80404884  0.86617454     0.16610
O564        O  0.42118081  0.75118390  0.85953945    -0.60310
H565        H  0.32888062  0.75080056  0.86250893     0.16630
O566        O  0.32208905  0.80366406  0.86914181    -0.60410
H567        H  0.31879891  0.80519339  0.89450951     0.43620
H568        H  0.42446624  0.74965044  0.83417106     0.43580
C569        C  0.12392540  0.30636664  0.60729975    -0.05480
C570        C  0.14879423  0.29263268  0.60911814    -0.32910
C571        C  0.14992064  0.26385552  0.60975290     0.36340
C572        C  0.12589889  0.24827848  0.60912488    -0.05840
C573        C  0.10102792  0.26200946  0.60727877    -0.32810
C574        C  0.09990075  0.29078962  0.60664442     0.36240
H575        H  0.16749340  0.30423212  0.60928626     0.16610
O576        O  0.17464503  0.25120698  0.61011034    -0.60310
H577        H  0.08232990  0.25040800  0.60712177     0.16630
O578        O  0.07517559  0.30343769  0.60629505    -0.60410
H579        H  0.07081678  0.30687234  0.63108907     0.43620
H580        H  0.17899270  0.24774138  0.58531995     0.43580
C581        C  0.37579221  0.24811447  0.61616008    -0.05480
C582        C  0.35780509  0.26314477  0.63708764    -0.32910
C583        C  0.35653398  0.29189967  0.63571620     0.36340
C584        C  0.37370432  0.30681212  0.61316232    -0.05840
C585        C  0.39168669  0.29178039  0.59223327    -0.32810
C586        C  0.39295108  0.26302775  0.59359480     0.36240
H587        H  0.34434814  0.25279970  0.65490187     0.16610
O588        O  0.33851977  0.30488097  0.65710632    -0.60310
H589        H  0.40514859  0.30212122  0.57442247     0.16630
O590        O  0.41093913  0.25004820  0.57216717    -0.60410
H591        H  0.42844709  0.25073302  0.58470569     0.43620
H592        H  0.32103664  0.30423415  0.64450743     0.43580
N593        N  0.91768863  0.09823413  0.08161197    -0.27310
N594        N  0.90893511  0.07498158  0.09545922    -0.35170
C595        C  0.92368535  0.05397185  0.08281020     0.01030
C596        C  0.94221511  0.06464603  0.05951704     0.07060
C597        C  0.93782044  0.09269256  0.05937005    -0.06040
H598        H  0.92062893  0.03253185  0.08932236     0.07730
H599        H  0.94855936  0.10800685  0.04433242     0.08930
Cu600      Cu  0.87620772  0.07337006  0.12906764     0.44170
Cu601      Cu  0.90248204  0.13659663  0.09377734     0.41990
Cu602      Cu  0.84900744  0.13974702  0.15685746     0.43880
N603        N  0.84303693  0.07794632  0.16150188    -0.34690
N604        N  0.83395044  0.10194032  0.17278514    -0.28950
C605        C  0.81292664  0.09755328  0.19419087    -0.05050
C606        C  0.80834257  0.06953227  0.19597291     0.07170
C607        C  0.82766146  0.05771240  0.17485628     0.00960
H608        H  0.80139469  0.11361922  0.20675183     0.08620
H609        H  0.83052223  0.03600053  0.16982172     0.07690
N610        N  0.86608121  0.17429908  0.13404687    -0.36140
N611        N  0.88562421  0.17300422  0.11087824    -0.28320
C612        C  0.89227813  0.19858732  0.10086294    -0.03560
C613        C  0.87606408  0.21732799  0.11852165     0.05050
C614        C  0.85967806  0.20082527  0.13934602     0.03140
H615        H  0.90787645  0.20261003  0.08202970     0.08250
H616        H  0.84408208  0.20734482  0.15712688     0.07080
O617        O  0.97034337  0.06086965  0.01018177    -0.72960
O618        O  0.52586019  0.02242636  0.45215956    -0.73940
O619        O  0.96828304  0.02238011  0.45475834    -0.62560
O620        O  0.52683390  0.06106254  0.00754669    -0.70970
O621        O  0.52849526  0.02657947  0.04540753    -0.70520
O622        O  0.96972506  0.98758746  0.49218732    -0.61780
O623        O  0.52654047  0.98772971  0.48975952    -0.74290
O624        O  0.97076496  0.02629653  0.04797006    -0.73070
Cu625      Cu  0.99779063  0.04281811  0.47978818     1.04560
Cu626      Cu  0.99892511  0.00583883  0.02023423     1.04330
C627        C  0.96196176  0.04979078  0.03826270     0.93240
C628        C  0.53488289  0.99900272  0.46176289     0.92380
C629        C  0.95984723  0.99890064  0.46503246     0.84520
C630        C  0.53670795  0.05011311  0.03489442     0.90790
N631        N  0.66777244  0.10256267  0.16471208    -0.27310
N632        N  0.65838456  0.07856288  0.15375152    -0.35170
C633        C  0.67291726  0.05826302  0.16838305     0.01030
C634        C  0.69197290  0.07007063  0.19004423     0.07060
C635        C  0.68811974  0.09814610  0.18723506    -0.06040
H636        H  0.66947247  0.03652219  0.16412709     0.07730
H637        H  0.69956904  0.11419583  0.20008343     0.08930
Cu638      Cu  0.62536651  0.07425578  0.12092491     0.44170
Cu639      Cu  0.65350086  0.14025704  0.14736158     0.41990
Cu640      Cu  0.59797773  0.13766145  0.08658774     0.43880
N641        N  0.59193637  0.07586074  0.08843532    -0.34690
N642        N  0.58268060  0.09903992  0.07495771    -0.28950
C643        C  0.56179901  0.09327351  0.05383807    -0.05050
C644        C  0.55745718  0.06518510  0.05442373     0.07170
C645        C  0.57680365  0.05472618  0.07673433     0.00960
H646        H  0.55039687  0.10847563  0.03946293     0.08620
H647        H  0.58000127  0.03335154  0.08342874     0.07690
N648        N  0.61584631  0.17397242  0.10303746    -0.36140
N649        N  0.63650614  0.17491954  0.12479877    -0.28320
C650        C  0.64357978  0.20134915  0.12991660    -0.03560
C651        C  0.62641512  0.21785710  0.11060064     0.05050
C652        C  0.60899494  0.19977499  0.09405102     0.03140
H653        H  0.65958040  0.20802138  0.14716189     0.08250
H654        H  0.59261703  0.20496081  0.07660743     0.07080
N655        N  0.82798923  0.95537671  0.33238515    -0.27310
N656        N  0.83732931  0.97867230  0.34556934    -0.35170
C657        C  0.82288631  0.99978595  0.33259655     0.01030
C658        C  0.80394591  0.98917250  0.30974209     0.07060
C659        C  0.80778620  0.96102573  0.31018199    -0.06040
H660        H  0.82644986  0.02125400  0.33855999     0.07730
H661        H  0.79661589  0.94572683  0.29557913     0.08930
Cu662      Cu  0.87045952  0.98042077  0.37864610     0.44170
Cu663      Cu  0.84259022  0.91681446  0.34532553     0.41990
Cu664      Cu  0.89873585  0.91443474  0.40494710     0.43880
N665        N  0.90395973  0.97616421  0.41071176    -0.34690
N666        N  0.91347133  0.95219384  0.42145001    -0.28950
C667        C  0.93450369  0.95663557  0.44290762    -0.05050
C668        C  0.93867151  0.98469250  0.44527032     0.07170
C669        C  0.91908561  0.99647384  0.42445118     0.00960
H670        H  0.94630152  0.94059824  0.45513555     0.08620
H671        H  0.91585659  0.01819830  0.41992204     0.07690
N672        N  0.88103271  0.87965884  0.38354320    -0.36140
N673        N  0.86004300  0.88054660  0.36231936    -0.28320
C674        C  0.85294590  0.85472848  0.35360931    -0.03560
C675        C  0.87044725  0.83670405  0.36996929     0.05050
C676        C  0.88810654  0.85324658  0.38854530     0.03140
H677        H  0.83663510  0.84955303  0.33602826     0.08250
H678        H  0.90471172  0.84658178  0.40478089     0.07080
O679        O  0.77571809  0.02777659  0.29810888    -0.72960
O680        O  0.72036783  0.06698735  0.23963756    -0.73940
O681        O  0.71796042  0.02803651  0.29505412    -0.62560
O682        O  0.77717066  0.06668957  0.24261996    -0.70970
O683        O  0.77847819  0.03198760  0.20500309    -0.70520
O684        O  0.71943677  0.99366053  0.25697907    -0.61780
O685        O  0.72091663  0.03234108  0.20190393    -0.74290
O686        O  0.77594889  0.99327033  0.26017261    -0.73070
Cu687      Cu  0.74777228  0.04857602  0.27027482     1.04560
Cu688      Cu  0.74873975  0.01168427  0.22964121     1.04330
C689        C  0.78435280  0.00421763  0.28837348     0.93240
C690        C  0.71201694  0.05579952  0.21153390     0.92380
C691        C  0.70951805  0.00465339  0.28424725     0.84520
C692        C  0.78703424  0.05539171  0.21547596     0.90670
N693        N  0.66222308  0.95632627  0.32251977    -0.27310
N694        N  0.65384038  0.97941308  0.33713577    -0.35170
C695        C  0.66954636  0.00033799  0.32619788     0.01030
C696        C  0.68838460  0.98982667  0.30326231     0.07060
C697        C  0.68312806  0.96193737  0.30148754    -0.06040
H698        H  0.66715301  0.02160389  0.33394918     0.07730
H699        H  0.69398846  0.94673080  0.28646040     0.08930
Cu700      Cu  0.62100442  0.98102413  0.37047339     0.44170
Cu701      Cu  0.64621515  0.91791360  0.33321510     0.41990
Cu702      Cu  0.59514196  0.91475646  0.39984447     0.43880
N703        N  0.58854858  0.97647839  0.40402252    -0.34690
N704        N  0.57999900  0.95247792  0.41600588    -0.28950
C705        C  0.55972186  0.95683253  0.43857699    -0.05050
C706        C  0.55506459  0.98483939  0.44040729     0.07170
C707        C  0.57356360  0.99667934  0.41808281     0.00960
H708        H  0.54887820  0.94076490  0.45216580     0.08620
H709        H  0.57632664  0.01839900  0.41297442     0.07690
N710        N  0.61172234  0.88017658  0.37645379    -0.36140
N711        N  0.63017406  0.88143891  0.35174616    -0.28320
C712        C  0.63672370  0.85577030  0.34187261    -0.03560
C713        C  0.62173807  0.83727154  0.36141236     0.05050
C714        C  0.60598937  0.85360929  0.38293042     0.03140
H715        H  0.65106068  0.85116093  0.32154326     0.08250
H716        H  0.59159291  0.84673282  0.40219779     0.07080
N717        N  0.91556380  0.59948776  0.39569926    -0.27310
N718        N  0.90620017  0.57622753  0.38244134    -0.35170
C719        C  0.92099612  0.55512911  0.39475629     0.01030
C720        C  0.94020642  0.56570708  0.41725049     0.07060
C721        C  0.93615167  0.59382214  0.41729796    -0.06040
H722        H  0.91761487  0.53369746  0.38842005     0.07730
H723        H  0.94753336  0.60910299  0.43165887     0.08930
Cu724      Cu  0.87288923  0.57446701  0.34968889     0.44170
Cu725      Cu  0.90075172  0.63805544  0.38326033     0.41990
Cu726      Cu  0.84467345  0.64042500  0.32350077     0.43880
N727        N  0.83960645  0.57871257  0.31726406    -0.34690
N728        N  0.83015040  0.60270135  0.30651566    -0.28950
C729        C  0.80950749  0.59828528  0.28442776    -0.05050
C730        C  0.80552616  0.57022076  0.28166196     0.07170
C731        C  0.82481712  0.55840946  0.30290892     0.00960
H732        H  0.79792466  0.61433579  0.27189024     0.08620
H733        H  0.82818928  0.53666999  0.30713944     0.07690
N734        N  0.86227082  0.67519335  0.34510132    -0.36140
N735        N  0.88323328  0.67430853  0.36637103    -0.28320
C736        C  0.89030709  0.70012478  0.37511938    -0.03560
C737        C  0.87281827  0.71814677  0.35873734     0.05050
C738        C  0.85518985  0.70160516  0.34011062     0.03140
H739        H  0.90660960  0.70530102  0.39271311     0.08250
H740        H  0.83861769  0.70827261  0.32382099     0.07080
N741        N  0.91511032  0.45288302  0.05547193    -0.27310
N742        N  0.90609692  0.47690526  0.06675015    -0.35170
C743        C  0.92108954  0.49713401  0.05268127     0.01030
C744        C  0.94006188  0.48527639  0.03108174     0.07060
C745        C  0.93568776  0.45723954  0.03334452    -0.06040
H746        H  0.91808906  0.51887170  0.05739035     0.07730
H747        H  0.94698635  0.44115672  0.02046973     0.08930
Cu748      Cu  0.87320197  0.48149566  0.09961748     0.44170
Cu749      Cu  0.90030729  0.41512558  0.07202208     0.41990
Cu750      Cu  0.84699785  0.41833724  0.13537068     0.43880
N751        N  0.84025371  0.47989263  0.13283798    -0.34690
N752        N  0.83149503  0.45669676  0.14683170    -0.28950
C753        C  0.81091509  0.46225368  0.16837169    -0.05050
C754        C  0.80624450  0.49024421  0.16759568     0.07170
C755        C  0.82507805  0.50087146  0.14468652     0.00960
H756        H  0.79996680  0.44696789  0.18320464     0.08620
H757        H  0.82792417  0.52225210  0.13772310     0.07690
N758        N  0.86391508  0.38192805  0.11841869    -0.36140
N759        N  0.88337758  0.38061203  0.09513865    -0.28320
C760        C  0.88976271  0.35408095  0.08985238    -0.03560
C761        C  0.87344924  0.33759840  0.11079826     0.05050
C762        C  0.85730018  0.35635563  0.12852416     0.03140
H763        H  0.90527300  0.34754374  0.07195859     0.08250
H764        H  0.84175647  0.35234809  0.14743841     0.07080
N765        N  0.66350703  0.60240838  0.30257241    -0.27310
N766        N  0.65485527  0.57847145  0.31464030    -0.35170
C767        C  0.67020093  0.55822875  0.30135429     0.01030
C768        C  0.68906388  0.56996854  0.27946275     0.07060
C769        C  0.68423385  0.59796189  0.28072470    -0.06040
H770        H  0.66754996  0.53655456  0.30685188     0.07730
H771        H  0.69533730  0.61397340  0.26737912     0.08930
Cu772      Cu  0.62212497  0.57403261  0.34774986     0.44170
Cu773      Cu  0.64812202  0.64021430  0.31798100     0.41990
Cu774      Cu  0.59695354  0.63725836  0.38449731     0.43880
N775        N  0.58955674  0.57570517  0.38149877    -0.34690
N776        N  0.58122024  0.59886263  0.39597519    -0.28950
C777        C  0.56077130  0.59326991  0.41774754    -0.05050
C778        C  0.55576173  0.56531199  0.41661002     0.07170
C779        C  0.57426242  0.55474431  0.39326212     0.00960
H780        H  0.55013590  0.60850775  0.43299024     0.08620
H781        H  0.57682851  0.53340072  0.38595858     0.07690
N782        N  0.61290468  0.67367821  0.36564700    -0.36140
N783        N  0.63139077  0.67487360  0.34097756    -0.28320
C784        C  0.63710553  0.70142505  0.33436012    -0.03560
C785        C  0.62130942  0.71782102  0.35575090     0.05050
C786        C  0.60631812  0.69937264  0.37535992     0.03140
H787        H  0.65154756  0.70824817  0.31511917     0.08250
H788        H  0.59197755  0.70403296  0.39566562     0.07080
O789        O  0.52715112  0.52261654  0.01979235    -0.72960
O790        O  0.96990808  0.56161626  0.46514211    -0.73940
O791        O  0.96954235  0.52285556  0.02033439    -0.62560
O792        O  0.52645893  0.56137321  0.46474033    -0.70970
O793        O  0.52663052  0.52701194  0.42659049    -0.70520
O794        O  0.96952857  0.48818757  0.48262407    -0.61780
O795        O  0.96885257  0.52715480  0.42715414    -0.74290
O796        O  0.52636011  0.48801836  0.48198557    -0.73070
Cu797      Cu  0.99827367  0.54324522  0.49388329     1.04560
Cu798      Cu  0.99782083  0.50639128  0.45316979     1.04330
C799        C  0.53572295  0.49918880  0.00956160     0.93240
C800        C  0.96052843  0.55067910  0.43744964     0.92380
C801        C  0.96065444  0.49944276  0.01036293     0.84520
C802        C  0.53538679  0.55042155  0.43687878     0.90790
O803        O  0.71863697  0.53236665  0.26950770    -0.72960
O804        O  0.77634619  0.49399248  0.21515456    -0.73940
O805        O  0.77625238  0.53252137  0.27054152    -0.62560
O806        O  0.71982531  0.49365152  0.21415125    -0.70970
O807        O  0.71947929  0.52813412  0.17623220    -0.70520
O808        O  0.77612701  0.56727709  0.23301201    -0.61780
O809        O  0.77722073  0.52851656  0.17730282    -0.74290
O810        O  0.71929163  0.56702941  0.23185400    -0.73070
Cu811      Cu  0.74774672  0.51200014  0.24371858     1.04560
Cu812      Cu  0.74803544  0.54894677  0.20319720     1.04330
C813        C  0.70995384  0.55577218  0.25932877     0.93240
C814        C  0.78572073  0.50506455  0.18760004     0.92380
C815        C  0.78502934  0.55600107  0.26074637     0.84520
C816        C  0.71096220  0.50456647  0.18620905     0.90790
N817        N  0.58147723  0.45231599  0.05362929    -0.27310
N818        N  0.59091630  0.47626048  0.06470915    -0.35170
C819        C  0.57593908  0.49660771  0.05096098     0.01030
C820        C  0.55651662  0.48489001  0.02977289     0.07060
C821        C  0.56063142  0.45682178  0.03191857    -0.06040
H822        H  0.57922013  0.51831930  0.05564719     0.07730
H823        H  0.54895666  0.44082395  0.01930455     0.08930
Cu824      Cu  0.62423865  0.48044900  0.09703034     0.44170
Cu825      Cu  0.59611002  0.41453979  0.07007906     0.41990
Cu826      Cu  0.65169885  0.41692221  0.13077569     0.43880
N827        N  0.65737152  0.47877922  0.13000407    -0.34690
N828        N  0.66661650  0.45554123  0.14333064    -0.28950
C829        C  0.68699187  0.46129186  0.16527256    -0.05050
C830        C  0.69101586  0.48943753  0.16538774     0.07170
C831        C  0.67201977  0.49994062  0.14261601     0.00960
H832        H  0.69818864  0.44606075  0.17986468     0.08620
H833        H  0.66860963  0.52136885  0.13638594     0.07690
N834        N  0.63396180  0.38065390  0.11386198    -0.36140
N835        N  0.61327927  0.37978738  0.09213144    -0.28320
C836        C  0.60622666  0.35337762  0.08680528    -0.03560
C837        C  0.62342710  0.33679288  0.10595682     0.05050
C838        C  0.64084727  0.35481240  0.12262237     0.03140
H839        H  0.59018322  0.34677999  0.06958032     0.08250
H840        H  0.65721655  0.34955732  0.14004572     0.07080
C841        C  0.62193650  0.80671737  0.35964422    -0.05480
C842        C  0.59865194  0.79199711  0.36908151    -0.32910
C843        C  0.59807803  0.76318088  0.36810587     0.36340
C844        C  0.62110640  0.74837977  0.35742291    -0.05840
C845        C  0.64438859  0.76310016  0.34796531    -0.32810
C846        C  0.64496159  0.79191956  0.34894094     0.36240
H847        H  0.58053637  0.80283467  0.37679176     0.16610
O848        O  0.57444467  0.74986221  0.37601696    -0.60310
H849        H  0.66250459  0.75226190  0.34025921     0.16630
O850        O  0.66859215  0.80524252  0.34102761    -0.60410
H851        H  0.67033450  0.80387656  0.31538401     0.43620
H852        H  0.57267651  0.75126857  0.40165433     0.43580
C853        C  0.87082668  0.80636320  0.36731691    -0.05480
C854        C  0.89564034  0.79253687  0.36570001    -0.32910
C855        C  0.89657723  0.76386430  0.36247761     0.36340
C856        C  0.87244322  0.74848710  0.36137530    -0.05840
C857        C  0.84763053  0.76231318  0.36298556    -0.32810
C858        C  0.84669343  0.79098514  0.36620812     0.36240
H859        H  0.91439054  0.80404883  0.36617455     0.16610
O860        O  0.92118084  0.75118389  0.35953946    -0.60310
H861        H  0.82888066  0.75080054  0.36250893     0.16630
O862        O  0.82208907  0.80366403  0.36914182    -0.60410
H863        H  0.81879893  0.80519336  0.39450953     0.43620
H864        H  0.92446628  0.74965044  0.33417107     0.43580
C865        C  0.62392537  0.30636665  0.10729969    -0.05480
C866        C  0.64879421  0.29263269  0.10911797    -0.32910
C867        C  0.64992063  0.26385554  0.10975271     0.36340
C868        C  0.62589887  0.24827849  0.10912479    -0.05840
C869        C  0.60102790  0.26200946  0.10727876    -0.32810
C870        C  0.59990073  0.29078963  0.10664443     0.36240
H871        H  0.66749338  0.30423213  0.10928602     0.16610
O872        O  0.67464502  0.25120699  0.11011004    -0.60310
H873        H  0.58232988  0.25040801  0.10712183     0.16630
O874        O  0.57517557  0.30343769  0.10629514    -0.60410
H875        H  0.57081680  0.30687233  0.13108918     0.43620
H876        H  0.67899259  0.24774132  0.08531963     0.43580
C877        C  0.87579223  0.24811449  0.11616015    -0.05480
C878        C  0.85780499  0.26314478  0.13708755    -0.32910
C879        C  0.85653389  0.29189968  0.13571612     0.36340
C880        C  0.87370435  0.30681214  0.11316240    -0.05840
C881        C  0.89168684  0.29178041  0.09223352    -0.32810
C882        C  0.89295122  0.26302777  0.09359504     0.36240
H883        H  0.84434793  0.25279970  0.15490163     0.16610
O884        O  0.83851954  0.30488097  0.15710606    -0.60310
H885        H  0.90514886  0.30212125  0.07442287     0.16630
O886        O  0.91093942  0.25004824  0.07216761    -0.60410
H887        H  0.92844727  0.25073295  0.08470639     0.43620
H888        H  0.82103651  0.30423424  0.14450693     0.43580
N889        N  0.91768868  0.09823412  0.58161203    -0.27310
N890        N  0.90893515  0.07498157  0.59545928    -0.35170
C891        C  0.92368536  0.05397183  0.58281023     0.01030
C892        C  0.94221513  0.06464601  0.55951706     0.07060
C893        C  0.93782047  0.09269254  0.55937009    -0.06040
H894        H  0.92062894  0.03253183  0.58932237     0.07730
H895        H  0.94855940  0.10800684  0.54433247     0.08930
Cu896      Cu  0.87620776  0.07337005  0.62906769     0.44170
Cu897      Cu  0.90248212  0.13659662  0.59377742     0.41990
Cu898      Cu  0.84900742  0.13974701  0.65685740     0.43880
N899        N  0.84303694  0.07794632  0.66150190    -0.34690
N900        N  0.83395043  0.10194032  0.67278512    -0.28950
C901        C  0.81292662  0.09755329  0.69419084    -0.05050
C902        C  0.80834258  0.06953228  0.69597291     0.07170
C903        C  0.82766148  0.05771240  0.67485632     0.00960
H904        H  0.80139466  0.11361922  0.70675176     0.08620
H905        H  0.83052227  0.03600052  0.66982179     0.07690
N906        N  0.86608121  0.17429907  0.63404682    -0.36140
N907        N  0.88562426  0.17300421  0.61087827    -0.28320
C908        C  0.89227819  0.19858731  0.60086299    -0.03560
C909        C  0.87606408  0.21732798  0.61852161     0.05050
C910        C  0.85967802  0.20082526  0.63934593     0.03140
H911        H  0.90787658  0.20261002  0.58202984     0.08250
H912        H  0.84408199  0.20734481  0.65712670     0.07080
O913        O  0.97034337  0.06086964  0.51018177    -0.72960
O914        O  0.52586019  0.02242637  0.95215956    -0.73940
O915        O  0.96828304  0.02238012  0.95475834    -0.62560
O916        O  0.52683389  0.06106253  0.50754670    -0.70970
O917        O  0.52849526  0.02657945  0.54540753    -0.70520
O918        O  0.96972505  0.98758747  0.99218734    -0.61780
O919        O  0.52654047  0.98772972  0.98975954    -0.74290
O920        O  0.97076496  0.02629651  0.54797006    -0.73070
Cu921      Cu  0.99779064  0.04281812  0.97978818     1.04560
Cu922      Cu  0.99892512  0.00583882  0.52023422     1.04330
C923        C  0.96196176  0.04979076  0.53826270     0.93240
C924        C  0.53488289  0.99900272  0.96176290     0.92380
C925        C  0.95984722  0.99890065  0.96503247     0.84520
C926        C  0.53670794  0.05011309  0.53489442     0.90790
N927        N  0.66777239  0.10256265  0.66471215    -0.27310
N928        N  0.65838453  0.07856286  0.65375157    -0.35170
C929        C  0.67291725  0.05826300  0.66838306     0.01030
C930        C  0.69197288  0.07007062  0.69004425     0.07060
C931        C  0.68811970  0.09814608  0.68723512    -0.06040
H932        H  0.66947247  0.03652217  0.66412708     0.07730
H933        H  0.69956899  0.11419581  0.70008350     0.08930
Cu934      Cu  0.62536648  0.07425577  0.62092495     0.44170
Cu935      Cu  0.65350079  0.14025702  0.64736169     0.41990
Cu936      Cu  0.59797770  0.13766145  0.58658779     0.43880
N937        N  0.59193634  0.07586073  0.58843536    -0.34690
N938        N  0.58268057  0.09903992  0.57495776    -0.28950
C939        C  0.56179898  0.09327351  0.55383810    -0.05050
C940        C  0.55745716  0.06518509  0.55442376     0.07170
C941        C  0.57680364  0.05472617  0.57673435     0.00960
H942        H  0.55039684  0.10847562  0.53946297     0.08620
H943        H  0.58000126  0.03335153  0.58342876     0.07690
N944        N  0.61584629  0.17397241  0.60303753    -0.36140
N945        N  0.63650610  0.17491952  0.62479887    -0.28320
C946        C  0.64357975  0.20134913  0.62991671    -0.03560
C947        C  0.62641512  0.21785709  0.61060073     0.05050
C948        C  0.60899495  0.19977499  0.59405108     0.03140
H949        H  0.65958037  0.20802134  0.64716202     0.08250
H950        H  0.59261705  0.20496082  0.57660748     0.07080
N951        N  0.82798923  0.95537673  0.83238517    -0.27310
N952        N  0.83732930  0.97867232  0.84556937    -0.35170
C953        C  0.82288630  0.99978596  0.83259657     0.01030
C954        C  0.80394591  0.98917252  0.80974211     0.07060
C955        C  0.80778620  0.96102575  0.81018200    -0.06040
H956        H  0.82644986  0.02125402  0.83856001     0.07730
H957        H  0.79661590  0.94572685  0.79557914     0.08930
Cu958      Cu  0.87045950  0.98042079  0.87864613     0.44170
Cu959      Cu  0.84259022  0.91681447  0.84532555     0.41990
Cu960      Cu  0.89873584  0.91443474  0.90494712     0.43880
N961        N  0.90395972  0.97616422  0.91071178    -0.34690
N962        N  0.91347133  0.95219385  0.92145004    -0.28950
C963        C  0.93450368  0.95663557  0.94290764    -0.05050
C964        C  0.93867151  0.98469251  0.94527033     0.07170
C965        C  0.91908560  0.99647385  0.92445120     0.00960
H966        H  0.94630152  0.94059825  0.95513556     0.08620
H967        H  0.91585658  0.01819831  0.91992207     0.07690
N968        N  0.88103270  0.87965885  0.88354321    -0.36140
N969        N  0.86004300  0.88054661  0.86231936    -0.28320
C970        C  0.85294589  0.85472850  0.85360931    -0.03560
C971        C  0.87044723  0.83670406  0.86996929     0.05050
C972        C  0.88810653  0.85324659  0.88854530     0.03140
H973        H  0.83663509  0.84955305  0.83602825     0.08250
H974        H  0.90471171  0.84658178  0.90478089     0.07080
O975        O  0.77571810  0.02777660  0.79810889    -0.72960
O976        O  0.72036783  0.06698735  0.73963757    -0.73940
O977        O  0.71796043  0.02803651  0.79505414    -0.62560
O978        O  0.77717066  0.06668958  0.74261996    -0.70970
O979        O  0.77847819  0.03198761  0.70500309    -0.70520
O980        O  0.71943677  0.99366054  0.75697908    -0.61780
O981        O  0.72091663  0.03234108  0.70190394    -0.74290
O982        O  0.77594890  0.99327034  0.76017262    -0.73070
Cu983      Cu  0.74777228  0.04857603  0.77027482     1.04560
Cu984      Cu  0.74873976  0.01168428  0.72964122     1.04330
C985        C  0.78435281  0.00421765  0.78837349     0.93240
C986        C  0.71201694  0.05579951  0.71153391     0.92380
C987        C  0.70951805  0.00465340  0.78424727     0.84520
C988        C  0.78703424  0.05539172  0.71547597     0.90670
N989        N  0.66222308  0.95632628  0.82251977    -0.27310
N990        N  0.65384038  0.97941309  0.83713578    -0.35170
C991        C  0.66954636  0.00033800  0.82619790     0.01030
C992        C  0.68838460  0.98982668  0.80326232     0.07060
C993        C  0.68312806  0.96193738  0.80148755    -0.06040
H994        H  0.66715302  0.02160390  0.83394920     0.07730
H995        H  0.69398845  0.94673081  0.78646039     0.08930
Cu996      Cu  0.62100443  0.98102414  0.87047341     0.44170
Cu997      Cu  0.64621514  0.91791361  0.83321509     0.41990
Cu998      Cu  0.59514195  0.91475647  0.89984445     0.43880
N999        N  0.58854858  0.97647840  0.90402254    -0.34690
N1000       N  0.57999900  0.95247793  0.91600589    -0.28950
C1001       C  0.55972185  0.95683253  0.93857699    -0.05050
C1002       C  0.55506460  0.98483940  0.94040730     0.07170
C1003       C  0.57356361  0.99667935  0.91808284     0.00960
H1004       H  0.54887818  0.94076491  0.95216580     0.08620
H1005       H  0.57632665  0.01839901  0.91297445     0.07690
N1006       N  0.61172233  0.88017659  0.87645377    -0.36140
N1007       N  0.63017405  0.88143892  0.85174615    -0.28320
C1008       C  0.63672369  0.85577031  0.84187260    -0.03560
C1009       C  0.62173807  0.83727156  0.86141235     0.05050
C1010       C  0.60598936  0.85360930  0.88293041     0.03140
H1011       H  0.65106068  0.85116095  0.82154325     0.08250
H1012       H  0.59159290  0.84673283  0.90219778     0.07080
N1013       N  0.91556377  0.59948778  0.89569926    -0.27310
N1014       N  0.90620015  0.57622754  0.88244135    -0.35170
C1015       C  0.92099610  0.55512913  0.89475629     0.01030
C1016       C  0.94020641  0.56570709  0.91725048     0.07060
C1017       C  0.93615165  0.59382216  0.91729796    -0.06040
H1018       H  0.91761485  0.53369747  0.88842004     0.07730
H1019       H  0.94753334  0.60910301  0.93165886     0.08930
Cu1020     Cu  0.87288920  0.57446702  0.84968890     0.44170
Cu1021     Cu  0.90075168  0.63805545  0.88326034     0.41990
Cu1022     Cu  0.84467341  0.64042501  0.82350078     0.43880
N1023       N  0.83960642  0.57871257  0.81726407    -0.34690
N1024       N  0.83015037  0.60270135  0.80651567    -0.28950
C1025       C  0.80950746  0.59828528  0.78442776    -0.05050
C1026       C  0.80552614  0.57022075  0.78166196     0.07170
C1027       C  0.82481710  0.55840946  0.80290893     0.00960
H1028       H  0.79792463  0.61433579  0.77189025     0.08620
H1029       H  0.82818926  0.53666999  0.80713944     0.07690
N1030       N  0.86227078  0.67519336  0.84510132    -0.36140
N1031       N  0.88323324  0.67430854  0.86637103    -0.28320
C1032       C  0.89030705  0.70012479  0.87511938    -0.03560
C1033       C  0.87281824  0.71814678  0.85873733     0.05050
C1034       C  0.85518981  0.70160517  0.84011062     0.03140
H1035       H  0.90660956  0.70530104  0.89271310     0.08250
H1036       H  0.83861765  0.70827262  0.82382099     0.07080
N1037       N  0.91511037  0.45288302  0.55547202    -0.27310
N1038       N  0.90609695  0.47690525  0.56675021    -0.35170
C1039       C  0.92108957  0.49713400  0.55268131     0.01030
C1040       C  0.94006191  0.48527639  0.53108179     0.07060
C1041       C  0.93568780  0.45723954  0.53334460    -0.06040
H1042       H  0.91808906  0.51887170  0.55739037     0.07730
H1043       H  0.94698641  0.44115671  0.52046982     0.08930
Cu1044     Cu  0.87320200  0.48149565  0.59961754     0.44170
Cu1045     Cu  0.90030737  0.41512557  0.57202219     0.41990
Cu1046     Cu  0.84699781  0.41833722  0.63537061     0.43880
N1047       N  0.84025371  0.47989261  0.63283799    -0.34690
N1048       N  0.83149501  0.45669675  0.64683167    -0.28950
C1049       C  0.81091506  0.46225366  0.66837166    -0.05050
C1050       C  0.80624449  0.49024419  0.66759568     0.07170
C1051       C  0.82507807  0.50087144  0.64468655     0.00960
H1052       H  0.79996675  0.44696787  0.68320457     0.08620
H1053       H  0.82792421  0.52225210  0.63772317     0.07690
N1054       N  0.86391506  0.38192804  0.61841865    -0.36140
N1055       N  0.88337762  0.38061202  0.59513870    -0.28320
C1056       C  0.88976278  0.35408094  0.58985244    -0.03560
C1057       C  0.87344924  0.33759838  0.61079823     0.05050
C1058       C  0.85730012  0.35635561  0.62852406     0.03140
H1059       H  0.90527312  0.34754374  0.57195873     0.08250
H1060       H  0.84175635  0.35234806  0.64743821     0.07080
N1061       N  0.66350704  0.60240838  0.80257240    -0.27310
N1062       N  0.65485526  0.57847145  0.81464028    -0.35170
C1063       C  0.67020092  0.55822875  0.80135427     0.01030
C1064       C  0.68906387  0.56996854  0.77946273     0.07060
C1065       C  0.68423385  0.59796189  0.78072468    -0.06040
H1066       H  0.66754993  0.53655456  0.80685185     0.07730
H1067       H  0.69533731  0.61397340  0.76737911     0.08930
Cu1068     Cu  0.62212497  0.57403263  0.84774986     0.44170
Cu1069     Cu  0.64812203  0.64021431  0.81798101     0.41990
Cu1070     Cu  0.59695357  0.63725838  0.88449733     0.43880
N1071       N  0.58955674  0.57570519  0.88149878    -0.34690
N1072       N  0.58122026  0.59886265  0.89597522    -0.28950
C1073       C  0.56077132  0.59326993  0.91774757    -0.05050
C1074       C  0.55576174  0.56531201  0.91661004     0.07170
C1075       C  0.57426242  0.55474433  0.89326213     0.00960
H1076       H  0.55013593  0.60850777  0.93299028     0.08620
H1077       H  0.57682850  0.53340074  0.88595858     0.07690
N1078       N  0.61290470  0.67367822  0.86564701    -0.36140
N1079       N  0.63139080  0.67487361  0.84097758    -0.28320
C1080       C  0.63710555  0.70142506  0.83436013    -0.03560
C1081       C  0.62130945  0.71782103  0.85575092     0.05050
C1082       C  0.60631815  0.69937265  0.87535993     0.03140
H1083       H  0.65154758  0.70824818  0.81511918     0.08250
H1084       H  0.59197758  0.70403297  0.89566564     0.07080
O1085       O  0.52715114  0.52261653  0.51979235    -0.72960
O1086       O  0.96990807  0.56161628  0.96514210    -0.73940
O1087       O  0.96954237  0.52285556  0.52033441    -0.62560
O1088       O  0.52645892  0.56137323  0.96474034    -0.70970
O1089       O  0.52663052  0.52701196  0.92659050    -0.70520
O1090       O  0.96952856  0.48818758  0.98262404    -0.61780
O1091       O  0.96885256  0.52715482  0.92715412    -0.74290
O1092       O  0.52636011  0.48801837  0.98198556    -0.73070
Cu1093     Cu  0.99827365  0.54324523  0.99388328     1.04560
Cu1094     Cu  0.99782082  0.50639130  0.95316978     1.04330
C1095       C  0.53572295  0.49918879  0.50956160     0.93240
C1096       C  0.96052842  0.55067911  0.93744962     0.92380
C1097       C  0.96065446  0.49944276  0.51036296     0.84520
C1098       C  0.53538679  0.55042158  0.93687879     0.90790
O1099       O  0.71863696  0.53236665  0.76950769    -0.72960
O1100       O  0.77634618  0.49399247  0.71515456    -0.73940
O1101       O  0.77625237  0.53252136  0.77054152    -0.62560
O1102       O  0.71982530  0.49365151  0.71415123    -0.70970
O1103       O  0.71947929  0.52813411  0.67623219    -0.70520
O1104       O  0.77612700  0.56727708  0.73301201    -0.61780
O1105       O  0.77722073  0.52851655  0.67730282    -0.74290
O1106       O  0.71929162  0.56702940  0.73185398    -0.73070
Cu1107     Cu  0.74774671  0.51200013  0.74371858     1.04560
Cu1108     Cu  0.74803544  0.54894676  0.70319720     1.04330
C1109       C  0.70995383  0.55577218  0.75932875     0.93240
C1110       C  0.78572072  0.50506454  0.68760004     0.92380
C1111       C  0.78502933  0.55600106  0.76074637     0.84520
C1112       C  0.71096220  0.50456646  0.68620903     0.90790
N1113       N  0.58147723  0.45231597  0.55362929    -0.27310
N1114       N  0.59091630  0.47626046  0.56470914    -0.35170
C1115       C  0.57593909  0.49660769  0.55096097     0.01030
C1116       C  0.55651663  0.48488999  0.52977289     0.07060
C1117       C  0.56063142  0.45682176  0.53191857    -0.06040
H1118       H  0.57922015  0.51831928  0.55564718     0.07730
H1119       H  0.54895665  0.44082393  0.51930456     0.08930
Cu1120     Cu  0.62423866  0.48044899  0.59703031     0.44170
Cu1121     Cu  0.59611003  0.41453977  0.57007906     0.41990
Cu1122     Cu  0.65169886  0.41692221  0.63077567     0.43880
N1123       N  0.65737153  0.47877921  0.63000405    -0.34690
N1124       N  0.66661650  0.45554122  0.64333062    -0.28950
C1125       C  0.68699187  0.46129186  0.66527254    -0.05050
C1126       C  0.69101586  0.48943753  0.66538772     0.07170
C1127       C  0.67201978  0.49994061  0.64261599     0.00960
H1128       H  0.69818864  0.44606075  0.67986466     0.08620
H1129       H  0.66860964  0.52136884  0.63638592     0.07690
N1130       N  0.63396181  0.38065389  0.61386199    -0.36140
N1131       N  0.61327929  0.37978736  0.59213145    -0.28320
C1132       C  0.60622668  0.35337760  0.58680531    -0.03560
C1133       C  0.62342711  0.33679287  0.60595687     0.05050
C1134       C  0.64084728  0.35481240  0.62262241     0.03140
H1135       H  0.59018324  0.34677996  0.56958035     0.08250
H1136       H  0.65721656  0.34955733  0.64004576     0.07080
C1137       C  0.62193650  0.80671738  0.85964422    -0.05480
C1138       C  0.59865194  0.79199712  0.86908150    -0.32910
C1139       C  0.59807805  0.76318089  0.86810586     0.36340
C1140       C  0.62110642  0.74837978  0.85742292    -0.05840
C1141       C  0.64438861  0.76310017  0.84796533    -0.32810
C1142       C  0.64496161  0.79191958  0.84894095     0.36240
H1143       H  0.58053637  0.80283468  0.87679174     0.16610
O1144       O  0.57444469  0.74986221  0.87601695    -0.60310
H1145       H  0.66250461  0.75226192  0.84025924     0.16630
O1146       O  0.66859216  0.80524254  0.84102763    -0.60410
H1147       H  0.67033452  0.80387658  0.81538403     0.43620
H1148       H  0.57267652  0.75126858  0.90165431     0.43580
C1149       C  0.87082666  0.80636321  0.86731690    -0.05480
C1150       C  0.89564032  0.79253688  0.86570000    -0.32910
C1151       C  0.89657720  0.76386430  0.86247760     0.36340
C1152       C  0.87244319  0.74848711  0.86137529    -0.05840
C1153       C  0.84763050  0.76231320  0.86298554    -0.32810
C1154       C  0.84669340  0.79098515  0.86620811     0.36240
H1155       H  0.91439052  0.80404883  0.86617454     0.16610
O1156       O  0.92118081  0.75118389  0.85953944    -0.60310
H1157       H  0.82888063  0.75080056  0.86250892     0.16630
O1158       O  0.82208905  0.80366405  0.86914181    -0.60410
H1159       H  0.81879891  0.80519338  0.89450951     0.43620
H1160       H  0.92446625  0.74965044  0.83417105     0.43580
C1161       C  0.62392539  0.30636664  0.60729978    -0.05480
C1162       C  0.64879422  0.29263268  0.60911814    -0.32910
C1163       C  0.64992064  0.26385553  0.60975290     0.36340
C1164       C  0.62589888  0.24827848  0.60912489    -0.05840
C1165       C  0.60102792  0.26200945  0.60727880    -0.32810
C1166       C  0.59990074  0.29078962  0.60664446     0.36240
H1167       H  0.66749339  0.30423212  0.60928625     0.16610
O1168       O  0.67464503  0.25120698  0.61011032    -0.60310
H1169       H  0.58232990  0.25040800  0.60712181     0.16630
O1170       O  0.57517558  0.30343768  0.60629511    -0.60410
H1171       H  0.57081679  0.30687234  0.63108914     0.43620
H1172       H  0.67899269  0.24774139  0.58531992     0.43580
C1173       C  0.87579223  0.24811448  0.61616010    -0.05480
C1174       C  0.85780506  0.26314477  0.63708760    -0.32910
C1175       C  0.85653395  0.29189967  0.63571617     0.36340
C1176       C  0.87370434  0.30681213  0.61316235    -0.05840
C1177       C  0.89168675  0.29178040  0.59223336    -0.32810
C1178       C  0.89295114  0.26302775  0.59359488     0.36240
H1179       H  0.84434807  0.25279970  0.65490177     0.16610
O1180       O  0.83851969  0.30488097  0.65710622    -0.60310
H1181       H  0.90514870  0.30212123  0.57442262     0.16630
O1182       O  0.91093924  0.25004821  0.57216732    -0.60410
H1183       H  0.92844716  0.25073299  0.58470593     0.43620
H1184       H  0.82103660  0.30423418  0.64450723     0.43580
loop_ 
_geom_bond_atom_site_label_1 
_geom_bond_atom_site_label_2 
_geom_bond_distance 
_geom_bond_site_symmetry_2 
_ccdc_geom_bond_type 
N1            N2   1.322       .  A
N1            C5   1.342       .  A
N1           Cu9   2.065       .  S
N2            C3   1.347       .  A
N2           Cu8   2.076       .  S
C3            C4   1.384       .  A
C3            H6   1.082       .  S
C4            C5   1.380       .  A
C4           C35   1.466       .  S
C5            H7   1.082       .  S
Cu8          N11   2.076       .  S
Cu9          N19   2.065       .  S
Cu10         N12   2.074       .  S
Cu10         N18   2.074       .  S
N11          N12   1.323       .  A
N11          C15   1.345       .  A
N12          C13   1.345       .  A
C13          C14   1.382       .  A
C13          H16   1.082       .  S
C14          C15   1.381       .  A
C14         C100   1.466       .  S
C15          H17   1.082       .  S
N18          N19   1.318       .  A
N18          C22   1.343       .  A
N19          C20   1.342       .  A
C20          C21   1.392       .  A
C20          H23   1.077       .  S
C21          C22   1.394       .  A
C21         C285   1.499       .  S
C22          H24   1.080       .  S
O25          C35   1.276       .  A
O25        Cu329   1.998   1_554  S
O26          C36   1.278   1_545  A
O26        Cu625   2.013   1_455  S
O27          C37   1.277   1_545  A
O27         Cu33   2.009       .  S
O28          C38   1.276       .  A
O28        Cu921   1.996   1_454  S
O29          C38   1.279       .  A
O29        Cu626   2.022   1_455  S
O30          C37   1.277       .  A
O30        Cu330   2.008   1_565  S
O31          C36   1.277       .  A
O31        Cu922   2.007   1_465  S
O32          C35   1.278       .  A
O32         Cu34   2.020       .  S
Cu33        O321   1.998       .  S
Cu33        O618   2.013       .  S
Cu33        O916   1.996       .  S
Cu33       Cu330   2.377       .  S
Cu34        O621   2.022       .  S
Cu34        O326   2.008   1_544  S
Cu34        O919   2.007   1_544  S
Cu34       Cu329   2.377   1_554  S
C36         C114   1.467       .  S
C37          C76   1.466       .  S
C38          C52   1.466       .  S
N39          N40   1.323       .  A
N39          C43   1.345       .  A
N39         Cu47   2.074       .  S
N40          C41   1.345       .  A
N40         Cu46   2.074       .  S
C41          C42   1.382       .  A
C41          H44   1.082       .  S
C42          C43   1.382       .  A
C42          C98   1.466       .  S
C43          H45   1.082       .  S
Cu46         N49   2.074       .  S
Cu47         N57   2.074       .  S
Cu48         N50   2.071       .  S
Cu48         N56   2.071       .  S
N49          N50   1.322       .  A
N49          C53   1.347       .  A
N50          C51   1.343       .  A
C51          C52   1.381       .  A
C51          H54   1.082       .  S
C52          C53   1.383       .  A
C53          H55   1.082       .  S
N56          N57   1.322       .  A
N56          C60   1.345       .  A
N57          C58   1.345       .  A
C58          C59   1.385       .  A
C58          H61   1.082       .  S
C59          C60   1.384       .  A
C59         C276   1.479       .  S
C60          H62   1.082       .  S
N63          N64   1.322       .  A
N63          C67   1.343       .  A
N63         Cu71   2.070       .  S
N64          C65   1.347       .  A
N64         Cu70   2.076       .  S
C65          C66   1.383       .  A
C65          H68   1.082   1_565  S
C66          C67   1.381       .  A
C66          C97   1.467   1_565  S
C67          H69   1.082       .  S
Cu70         N73   2.076       .  S
Cu71         N81   2.070       .  S
Cu72         N74   2.072       .  S
Cu72         N80   2.072       .  S
N73          N74   1.323       .  A
N73          C77   1.345       .  A
N74          C75   1.345       .  A
C75          C76   1.381       .  A
C75          H78   1.082       .  S
C76          C77   1.382       .  A
C77          H79   1.082   1_565  S
N80          N81   1.321       .  A
N80          C84   1.345       .  A
N81          C82   1.344       .  A
C82          C83   1.384       .  A
C82          H85   1.082       .  S
C83          C84   1.384       .  A
C83         C261   1.478       .  S
C84          H86   1.082       .  S
O87          C97   1.279       .  A
O87         Cu95   2.021       .  S
O88          C98   1.277       .  A
O88         Cu95   2.008       .  S
O89          C99   1.279       .  A
O89         Cu95   2.021       .  S
O90         C100   1.277       .  A
O90         Cu95   2.007       .  S
O91         C100   1.277       .  A
O91         Cu96   2.010       .  S
O92          C99   1.276   1_565  A
O92         Cu96   1.995   1_565  S
O93          C98   1.278       .  A
O93         Cu96   2.011       .  S
O94          C97   1.276   1_565  A
O94         Cu96   1.999   1_565  S
Cu95        Cu96   2.377       .  S
C99         C104   1.466   1_545  S
N101        N102   1.322       .  A
N101        C105   1.343       .  A
N101       Cu109   2.068       .  S
N102        C103   1.347   1_565  A
N102       Cu108   2.074       .  S
C103        C104   1.383   1_545  A
C103        H106   1.082       .  S
C104        C105   1.381       .  A
C105        H107   1.082       .  S
Cu108       N111   2.074       .  S
Cu109       N119   2.068       .  S
Cu110       N112   2.077       .  S
Cu110       N118   2.076       .  S
N111        N112   1.323       .  A
N111        C115   1.345       .  A
N112        C113   1.345       .  A
C113        C114   1.382       .  A
C113        H116   1.082       .  S
C114        C115   1.381       .  A
C115        H117   1.082   1_565  S
N118        N119   1.321       .  A
N118        C122   1.345       .  A
N119        C120   1.344       .  A
C120        C121   1.387       .  A
C120        H123   1.080       .  S
C121        C122   1.388       .  A
C121        C249   1.486       .  S
C122        H124   1.082       .  S
N125        N126   1.322       .  A
N125        C129   1.343       .  A
N125       Cu133   2.070       .  S
N126        C127   1.347       .  A
N126       Cu132   2.076       .  S
C127        C128   1.383       .  A
C127        H130   1.082       .  S
C128        C129   1.381       .  A
C128        C208   1.466       .  S
C129        H131   1.082       .  S
Cu132       N135   2.076       .  S
Cu133       N143   2.069       .  S
Cu134       N136   2.073       .  S
Cu134       N142   2.072       .  S
N135        N136   1.323       .  A
N135        C139   1.345       .  A
N136        C137   1.345       .  A
C137        C138   1.381       .  A
C137        H140   1.082       .  S
C138        C139   1.382       .  A
C138        C223   1.466       .  S
C139        H141   1.082       .  S
N142        N143   1.321       .  A
N142        C146   1.345       .  A
N143        C144   1.344       .  A
C144        C145   1.384       .  A
C144        H147   1.082       .  S
C145        C146   1.384       .  A
C145        C264   1.478       .  S
C146        H148   1.082       .  S
N149        N150   1.323       .  A
N149        C153   1.345       .  A
N149       Cu157   2.075       .  S
N150        C151   1.345       .  A
N150       Cu156   2.076       .  S
C151        C152   1.381       .  A
C151        H154   1.082       .  S
C152        C153   1.382       .  A
C152        C209   1.466       .  S
C153        H155   1.082       .  S
Cu156       N159   2.075       .  S
Cu157       N167   2.075       .  S
Cu158       N160   2.065       .  S
Cu158       N166   2.064       .  S
N159        N160   1.322       .  A
N159        C163   1.347       .  A
N160        C161   1.342       .  A
C161        C162   1.380       .  A
C161        H164   1.082       .  S
C162        C163   1.384       .  A
C162        C222   1.466       .  S
C163        H165   1.082       .  S
N166        N167   1.318       .  A
N166        C170   1.342       .  A
N167        C168   1.343       .  A
C168        C169   1.394       .  A
C168        H171   1.080       .  S
C169        C170   1.392       .  A
C169        C288   1.499       .  S
C170        H172   1.077       .  S
N173        N174   1.323       .  A
N173        C177   1.345       .  A
N173       Cu181   2.076       .  S
N174        C175   1.345       .  A
N174       Cu180   2.074       .  S
C175        C176   1.381       .  A
C175        H178   1.082       .  S
C176        C177   1.382       .  A
C176        C221   1.466       .  S
C177        H179   1.082       .  S
Cu180       N183   2.074       .  S
Cu181       N191   2.076       .  S
Cu182       N184   2.069       .  S
Cu182       N190   2.069       .  S
N183        N184   1.322       .  A
N183        C187   1.347       .  A
N184        C185   1.343       .  A
C185        C186   1.381       .  A
C185        H188   1.082       .  S
C186        C187   1.383       .  A
C186        C210   1.466       .  S
C187        H189   1.082       .  S
N190        N191   1.321       .  A
N190        C194   1.344       .  A
N191        C192   1.345       .  A
C192        C193   1.388       .  A
C192        H195   1.082       .  S
C193        C194   1.387       .  A
C193        C252   1.486       .  S
C194        H196   1.080       .  S
O197        C207   1.278       .  A
O197      Cu1093   2.011   1_454  S
O198        C208   1.276       .  A
O198       Cu205   1.998       .  S
O199        C209   1.277       .  A
O199       Cu501   2.010   1_554  S
O200        C210   1.276       .  A
O200       Cu797   1.996   1_455  S
O201        C210   1.279       .  A
O201       Cu798   2.021   1_455  S
O202        C505   1.277       .  A
O202       Cu206   2.008       .  S
O203        C208   1.279       .  A
O203       Cu206   2.020       .  S
O204        C503   1.277       .  A
O204       Cu798   2.006   1_455  S
Cu205      O1085   2.011       .  S
Cu205       O495   2.010       .  S
Cu205       O792   1.996       .  S
Cu205      Cu206   2.378       .  S
Cu206       O793   2.021       .  S
Cu206       O796   2.006       .  S
C207        C228   1.466       .  S
C207        O500   1.277   1_554  A
C209        O498   1.277   1_554  A
O211        C221   1.278       .  A
O211       Cu219   2.012       .  S
O212        C222   1.276       .  A
O212       Cu219   1.997       .  S
O213        C223   1.277       .  A
O213       Cu219   2.010       .  S
O214        C224   1.276       .  A
O214       Cu219   1.997       .  S
O215        C224   1.279       .  A
O215       Cu220   2.022       .  S
O216        C223   1.277       .  A
O216       Cu220   2.008       .  S
O217        C222   1.278       .  A
O217       Cu220   2.019       .  S
O218        C221   1.277       .  A
O218       Cu220   2.005       .  S
Cu219      Cu220   2.377       .  S
C224        C238   1.467       .  S
N225        N226   1.323       .  A
N225        C229   1.345       .  A
N225       Cu233   2.073       .  S
N226        C227   1.345       .  A
N226       Cu232   2.074       .  S
C227        C228   1.381       .  A
C227        H230   1.082       .  S
C228        C229   1.382       .  A
C229        H231   1.082       .  S
Cu232       N235   2.074       .  S
Cu233       N243   2.073       .  S
Cu234       N236   2.072       .  S
Cu234       N242   2.071       .  S
N235        N236   1.322       .  A
N235        C239   1.347       .  A
N236        C237   1.343       .  A
C237        C238   1.382       .  A
C237        H240   1.082       .  S
C238        C239   1.383       .  A
C239        H241   1.082       .  S
N242        N243   1.322       .  A
N242        C246   1.345       .  A
N243        C244   1.345       .  A
C244        C245   1.385       .  A
C244        H247   1.082       .  S
C245        C246   1.384       .  A
C245        C273   1.479       .  S
C246        H248   1.082       .  S
C249        C250   1.404       .  A
C249        C254   1.411       .  A
C250        C251   1.401       .  A
C250        H255   1.083       .  S
C251        C252   1.411       .  A
C251        O256   1.371       .  S
C252        C253   1.404       .  A
C253        C254   1.401       .  A
C253        H257   1.083       .  S
C254        O258   1.371       .  S
O256        H260   0.992       .  S
O258        H259   0.992       .  S
C261        C262   1.403       .  A
C261        C266   1.409       .  A
C262        C263   1.399       .  A
C262        H267   1.083       .  S
C263        C264   1.409       .  A
C263        O268   1.371       .  S
C264        C265   1.403       .  A
C265        C266   1.399       .  A
C265        H269   1.083       .  S
C266        O270   1.371       .  S
O268        H272   0.992       .  S
O270        H271   0.992       .  S
C273        C274   1.404       .  A
C273        C278   1.409       .  A
C274        C275   1.400       .  A
C274        H279   1.083       .  S
C275        C276   1.409       .  A
C275        O280   1.371       .  S
C276        C277   1.404       .  A
C277        C278   1.400       .  A
C277        H281   1.083       .  S
C278        O282   1.371       .  S
O280        H284   0.992       .  S
O282        H283   0.992       .  S
C285        C286   1.407       .  A
C285        C290   1.415       .  A
C286        C287   1.400       .  A
C286        H291   1.080       .  S
C287        C288   1.415       .  A
C287        O292   1.369       .  S
C288        C289   1.406       .  A
C289        C290   1.399       .  A
C289        H293   1.080       .  S
C290        O294   1.369       .  S
O292        H296   0.992       .  S
O294        H295   0.992       .  S
N297        N298   1.322       .  A
N297        C301   1.342       .  A
N297       Cu305   2.065       .  S
N298        C299   1.347       .  A
N298       Cu304   2.076       .  S
C299        C300   1.384       .  A
C299        H302   1.082       .  S
C300        C301   1.380       .  A
C300        C331   1.466       .  S
C301        H303   1.082       .  S
Cu304       N307   2.076       .  S
Cu305       N315   2.065       .  S
Cu306       N308   2.074       .  S
Cu306       N314   2.074       .  S
N307        N308   1.323       .  A
N307        C311   1.345       .  A
N308        C309   1.345       .  A
C309        C310   1.382       .  A
C309        H312   1.082       .  S
C310        C311   1.381       .  A
C310        C396   1.466       .  S
C311        H313   1.082       .  S
N314        N315   1.318       .  A
N314        C318   1.343       .  A
N315        C316   1.342       .  A
C316        C317   1.392       .  A
C316        H319   1.077       .  S
C317        C318   1.394       .  A
C317        C581   1.499       .  S
C318        H320   1.080       .  S
O321        C331   1.276       .  A
O322        C332   1.278   1_545  A
O322       Cu921   2.013   1_455  S
O323        C333   1.277   1_545  A
O323       Cu329   2.009       .  S
O324        C334   1.276       .  A
O324       Cu625   1.996   1_455  S
O325        C334   1.279       .  A
O325       Cu922   2.022   1_455  S
O326        C333   1.277       .  A
O327        C332   1.277       .  A
O327       Cu626   2.007   1_466  S
O328        C331   1.278       .  A
O328       Cu330   2.020       .  S
Cu329       O914   2.013       .  S
Cu329       O620   1.996   1_556  S
Cu330       O917   2.022       .  S
Cu330       O623   2.007   1_545  S
C332        C410   1.467       .  S
C333        C372   1.466       .  S
C334        C348   1.466       .  S
N335        N336   1.323       .  A
N335        C339   1.345       .  A
N335       Cu343   2.074       .  S
N336        C337   1.345       .  A
N336       Cu342   2.074       .  S
C337        C338   1.382       .  A
C337        H340   1.082       .  S
C338        C339   1.382       .  A
C338        C394   1.466       .  S
C339        H341   1.082       .  S
Cu342       N345   2.074       .  S
Cu343       N353   2.074       .  S
Cu344       N346   2.071       .  S
Cu344       N352   2.071       .  S
N345        N346   1.322       .  A
N345        C349   1.347       .  A
N346        C347   1.343       .  A
C347        C348   1.381       .  A
C347        H350   1.082       .  S
C348        C349   1.383       .  A
C349        H351   1.082       .  S
N352        N353   1.322       .  A
N352        C356   1.345       .  A
N353        C354   1.345       .  A
C354        C355   1.385       .  A
C354        H357   1.082       .  S
C355        C356   1.384       .  A
C355        C572   1.479       .  S
C356        H358   1.082       .  S
N359        N360   1.322       .  A
N359        C363   1.343       .  A
N359       Cu367   2.070       .  S
N360        C361   1.347       .  A
N360       Cu366   2.076       .  S
C361        C362   1.383       .  A
C361        H364   1.082   1_565  S
C362        C363   1.381       .  A
C362        C393   1.467   1_565  S
C363        H365   1.082       .  S
Cu366       N369   2.076       .  S
Cu367       N377   2.070       .  S
Cu368       N370   2.072       .  S
Cu368       N376   2.072       .  S
N369        N370   1.323       .  A
N369        C373   1.345       .  A
N370        C371   1.345       .  A
C371        C372   1.381       .  A
C371        H374   1.082       .  S
C372        C373   1.382       .  A
C373        H375   1.082   1_565  S
N376        N377   1.321       .  A
N376        C380   1.345       .  A
N377        C378   1.344       .  A
C378        C379   1.384       .  A
C378        H381   1.082       .  S
C379        C380   1.384       .  A
C379        C557   1.478       .  S
C380        H382   1.082       .  S
O383        C393   1.279       .  A
O383       Cu391   2.021       .  S
O384        C394   1.277       .  A
O384       Cu391   2.008       .  S
O385        C395   1.279       .  A
O385       Cu391   2.021       .  S
O386        C396   1.277       .  A
O386       Cu391   2.007       .  S
O387        C396   1.277       .  A
O387       Cu392   2.010       .  S
O388        C395   1.276   1_565  A
O388       Cu392   1.995   1_565  S
O389        C394   1.278       .  A
O389       Cu392   2.011       .  S
O390        C393   1.276   1_565  A
O390       Cu392   1.999   1_565  S
Cu391      Cu392   2.377       .  S
C395        C400   1.466   1_545  S
N397        N398   1.322       .  A
N397        C401   1.343       .  A
N397       Cu405   2.068       .  S
N398        C399   1.347   1_565  A
N398       Cu404   2.074       .  S
C399        C400   1.383   1_545  A
C399        H402   1.082       .  S
C400        C401   1.381       .  A
C401        H403   1.082       .  S
Cu404       N407   2.074       .  S
Cu405       N415   2.068       .  S
Cu406       N408   2.077       .  S
Cu406       N414   2.076       .  S
N407        N408   1.323       .  A
N407        C411   1.345       .  A
N408        C409   1.345       .  A
C409        C410   1.382       .  A
C409        H412   1.082       .  S
C410        C411   1.381       .  A
C411        H413   1.082   1_565  S
N414        N415   1.321       .  A
N414        C418   1.345       .  A
N415        C416   1.344       .  A
C416        C417   1.387       .  A
C416        H419   1.080       .  S
C417        C418   1.388       .  A
C417        C545   1.486       .  S
C418        H420   1.082       .  S
N421        N422   1.322       .  A
N421        C425   1.343       .  A
N421       Cu429   2.070       .  S
N422        C423   1.347       .  A
N422       Cu428   2.076       .  S
C423        C424   1.383       .  A
C423        H426   1.082       .  S
C424        C425   1.381       .  A
C424        C504   1.466       .  S
C425        H427   1.082       .  S
Cu428       N431   2.076       .  S
Cu429       N439   2.069       .  S
Cu430       N432   2.073       .  S
Cu430       N438   2.072       .  S
N431        N432   1.323       .  A
N431        C435   1.345       .  A
N432        C433   1.345       .  A
C433        C434   1.381       .  A
C433        H436   1.082       .  S
C434        C435   1.382       .  A
C434        C519   1.466       .  S
C435        H437   1.082       .  S
N438        N439   1.321       .  A
N438        C442   1.345       .  A
N439        C440   1.344       .  A
C440        C441   1.384       .  A
C440        H443   1.082       .  S
C441        C442   1.384       .  A
C441        C560   1.478       .  S
C442        H444   1.082       .  S
N445        N446   1.323       .  A
N445        C449   1.345       .  A
N445       Cu453   2.075       .  S
N446        C447   1.345       .  A
N446       Cu452   2.076       .  S
C447        C448   1.381       .  A
C447        H450   1.082       .  S
C448        C449   1.382       .  A
C448        C505   1.466       .  S
C449        H451   1.082       .  S
Cu452       N455   2.075       .  S
Cu453       N463   2.075       .  S
Cu454       N456   2.065       .  S
Cu454       N462   2.064       .  S
N455        N456   1.322       .  A
N455        C459   1.347       .  A
N456        C457   1.342       .  A
C457        C458   1.380       .  A
C457        H460   1.082       .  S
C458        C459   1.384       .  A
C458        C518   1.466       .  S
C459        H461   1.082       .  S
N462        N463   1.318       .  A
N462        C466   1.342       .  A
N463        C464   1.343       .  A
C464        C465   1.394       .  A
C464        H467   1.080       .  S
C465        C466   1.392       .  A
C465        C584   1.499       .  S
C466        H468   1.077       .  S
N469        N470   1.323       .  A
N469        C473   1.345       .  A
N469       Cu477   2.076       .  S
N470        C471   1.345       .  A
N470       Cu476   2.074       .  S
C471        C472   1.381       .  A
C471        H474   1.082       .  S
C472        C473   1.382       .  A
C472        C517   1.466       .  S
C473        H475   1.082       .  S
Cu476       N479   2.074       .  S
Cu477       N487   2.076       .  S
Cu478       N480   2.069       .  S
Cu478       N486   2.069       .  S
N479        N480   1.322       .  A
N479        C483   1.347       .  A
N480        C481   1.343       .  A
C481        C482   1.381       .  A
C481        H484   1.082       .  S
C482        C483   1.383       .  A
C482        C506   1.466       .  S
C483        H485   1.082       .  S
N486        N487   1.321       .  A
N486        C490   1.344       .  A
N487        C488   1.345       .  A
C488        C489   1.388       .  A
C488        H491   1.082       .  S
C489        C490   1.387       .  A
C489        C548   1.486       .  S
C490        H492   1.080       .  S
O493        C503   1.278       .  A
O493       Cu797   2.011   1_455  S
O494        C504   1.276       .  A
O494       Cu501   1.998       .  S
O495        C505   1.277       .  A
O496        C506   1.276       .  A
O496      Cu1093   1.996   1_455  S
O497        C506   1.279       .  A
O497      Cu1094   2.021   1_455  S
O498       Cu502   2.008       .  S
O499        C504   1.279       .  A
O499       Cu502   2.020       .  S
O500      Cu1094   2.006   1_455  S
Cu501       O789   2.011   1_556  S
Cu501      O1088   1.996       .  S
Cu501      Cu502   2.378       .  S
Cu502      O1089   2.021       .  S
Cu502      O1092   2.006       .  S
C503        C524   1.466       .  S
O507        C517   1.278       .  A
O507       Cu515   2.012       .  S
O508        C518   1.276       .  A
O508       Cu515   1.997       .  S
O509        C519   1.277       .  A
O509       Cu515   2.010       .  S
O510        C520   1.276       .  A
O510       Cu515   1.997       .  S
O511        C520   1.279       .  A
O511       Cu516   2.022       .  S
O512        C519   1.277       .  A
O512       Cu516   2.008       .  S
O513        C518   1.278       .  A
O513       Cu516   2.019       .  S
O514        C517   1.277       .  A
O514       Cu516   2.005       .  S
Cu515      Cu516   2.377       .  S
C520        C534   1.467       .  S
N521        N522   1.323       .  A
N521        C525   1.345       .  A
N521       Cu529   2.073       .  S
N522        C523   1.345       .  A
N522       Cu528   2.074       .  S
C523        C524   1.381       .  A
C523        H526   1.082       .  S
C524        C525   1.382       .  A
C525        H527   1.082       .  S
Cu528       N531   2.074       .  S
Cu529       N539   2.073       .  S
Cu530       N532   2.072       .  S
Cu530       N538   2.071       .  S
N531        N532   1.322       .  A
N531        C535   1.347       .  A
N532        C533   1.343       .  A
C533        C534   1.382       .  A
C533        H536   1.082       .  S
C534        C535   1.383       .  A
C535        H537   1.082       .  S
N538        N539   1.322       .  A
N538        C542   1.345       .  A
N539        C540   1.345       .  A
C540        C541   1.385       .  A
C540        H543   1.082       .  S
C541        C542   1.384       .  A
C541        C569   1.479       .  S
C542        H544   1.082       .  S
C545        C546   1.404       .  A
C545        C550   1.411       .  A
C546        C547   1.401       .  A
C546        H551   1.083       .  S
C547        C548   1.411       .  A
C547        O552   1.371       .  S
C548        C549   1.404       .  A
C549        C550   1.401       .  A
C549        H553   1.083       .  S
C550        O554   1.371       .  S
O552        H556   0.992       .  S
O554        H555   0.992       .  S
C557        C558   1.403       .  A
C557        C562   1.409       .  A
C558        C559   1.399       .  A
C558        H563   1.083       .  S
C559        C560   1.409       .  A
C559        O564   1.371       .  S
C560        C561   1.403       .  A
C561        C562   1.399       .  A
C561        H565   1.083       .  S
C562        O566   1.371       .  S
O564        H568   0.992       .  S
O566        H567   0.992       .  S
C569        C570   1.404       .  A
C569        C574   1.409       .  A
C570        C571   1.400       .  A
C570        H575   1.083       .  S
C571        C572   1.409       .  A
C571        O576   1.371       .  S
C572        C573   1.404       .  A
C573        C574   1.400       .  A
C573        H577   1.083       .  S
C574        O578   1.371       .  S
O576        H580   0.992       .  S
O578        H579   0.992       .  S
C581        C582   1.407       .  A
C581        C586   1.415       .  A
C582        C583   1.400       .  A
C582        H587   1.080       .  S
C583        C584   1.415       .  A
C583        O588   1.369       .  S
C584        C585   1.406       .  A
C585        C586   1.399       .  A
C585        H589   1.080       .  S
C586        O590   1.369       .  S
O588        H592   0.992       .  S
O590        H591   0.992       .  S
N593        N594   1.322       .  A
N593        C597   1.342       .  A
N593       Cu601   2.065       .  S
N594        C595   1.347       .  A
N594       Cu600   2.076       .  S
C595        C596   1.384       .  A
C595        H598   1.082       .  S
C596        C597   1.380       .  A
C596        C627   1.466       .  S
C597        H599   1.082       .  S
Cu600       N603   2.076       .  S
Cu601       N611   2.065       .  S
Cu602       N604   2.074       .  S
Cu602       N610   2.074       .  S
N603        N604   1.323       .  A
N603        C607   1.345       .  A
N604        C605   1.345       .  A
C605        C606   1.382       .  A
C605        H608   1.082       .  S
C606        C607   1.381       .  A
C606        C692   1.466       .  S
C607        H609   1.082       .  S
N610        N611   1.318       .  A
N610        C614   1.343       .  A
N611        C612   1.342       .  A
C612        C613   1.392       .  A
C612        H615   1.077       .  S
C613        C614   1.394       .  A
C613        C877   1.499       .  S
C614        H616   1.080       .  S
O617        C627   1.276       .  A
O617       Cu921   1.998   1_554  S
O618        C628   1.278   1_545  A
O619        C629   1.277   1_545  A
O619       Cu625   2.009       .  S
O620        C630   1.276       .  A
O621        C630   1.279       .  A
O622        C629   1.277       .  A
O622       Cu922   2.008   1_565  S
O623        C628   1.277       .  A
O624        C627   1.278       .  A
O624       Cu626   2.020       .  S
Cu625       O913   1.998       .  S
Cu625      Cu922   2.377       .  S
Cu626       O918   2.008   1_544  S
Cu626      Cu921   2.377   1_554  S
C628        C706   1.467       .  S
C629        C668   1.466       .  S
C630        C644   1.466       .  S
N631        N632   1.323       .  A
N631        C635   1.345       .  A
N631       Cu639   2.074       .  S
N632        C633   1.345       .  A
N632       Cu638   2.074       .  S
C633        C634   1.382       .  A
C633        H636   1.082       .  S
C634        C635   1.382       .  A
C634        C690   1.466       .  S
C635        H637   1.082       .  S
Cu638       N641   2.074       .  S
Cu639       N649   2.074       .  S
Cu640       N642   2.071       .  S
Cu640       N648   2.071       .  S
N641        N642   1.322       .  A
N641        C645   1.347       .  A
N642        C643   1.343       .  A
C643        C644   1.381       .  A
C643        H646   1.082       .  S
C644        C645   1.383       .  A
C645        H647   1.082       .  S
N648        N649   1.322       .  A
N648        C652   1.345       .  A
N649        C650   1.345       .  A
C650        C651   1.385       .  A
C650        H653   1.082       .  S
C651        C652   1.384       .  A
C651        C868   1.479       .  S
C652        H654   1.082       .  S
N655        N656   1.322       .  A
N655        C659   1.343       .  A
N655       Cu663   2.070       .  S
N656        C657   1.347       .  A
N656       Cu662   2.076       .  S
C657        C658   1.383       .  A
C657        H660   1.082   1_565  S
C658        C659   1.381       .  A
C658        C689   1.467   1_565  S
C659        H661   1.082       .  S
Cu662       N665   2.076       .  S
Cu663       N673   2.070       .  S
Cu664       N666   2.072       .  S
Cu664       N672   2.072       .  S
N665        N666   1.323       .  A
N665        C669   1.345       .  A
N666        C667   1.345       .  A
C667        C668   1.381       .  A
C667        H670   1.082       .  S
C668        C669   1.382       .  A
C669        H671   1.082   1_565  S
N672        N673   1.321       .  A
N672        C676   1.345       .  A
N673        C674   1.344       .  A
C674        C675   1.384       .  A
C674        H677   1.082       .  S
C675        C676   1.384       .  A
C675        C853   1.478       .  S
C676        H678   1.082       .  S
O679        C689   1.279       .  A
O679       Cu687   2.021       .  S
O680        C690   1.277       .  A
O680       Cu687   2.008       .  S
O681        C691   1.279       .  A
O681       Cu687   2.021       .  S
O682        C692   1.277       .  A
O682       Cu687   2.007       .  S
O683        C692   1.277       .  A
O683       Cu688   2.010       .  S
O684        C691   1.276   1_565  A
O684       Cu688   1.995   1_565  S
O685        C690   1.278       .  A
O685       Cu688   2.011       .  S
O686        C689   1.276   1_565  A
O686       Cu688   1.999   1_565  S
Cu687      Cu688   2.377       .  S
C691        C696   1.466   1_545  S
N693        N694   1.322       .  A
N693        C697   1.343       .  A
N693       Cu701   2.068       .  S
N694        C695   1.347   1_565  A
N694       Cu700   2.074       .  S
C695        C696   1.383   1_545  A
C695        H698   1.082       .  S
C696        C697   1.381       .  A
C697        H699   1.082       .  S
Cu700       N703   2.074       .  S
Cu701       N711   2.068       .  S
Cu702       N704   2.077       .  S
Cu702       N710   2.076       .  S
N703        N704   1.323       .  A
N703        C707   1.345       .  A
N704        C705   1.345       .  A
C705        C706   1.382       .  A
C705        H708   1.082       .  S
C706        C707   1.381       .  A
C707        H709   1.082   1_565  S
N710        N711   1.321       .  A
N710        C714   1.345       .  A
N711        C712   1.344       .  A
C712        C713   1.387       .  A
C712        H715   1.080       .  S
C713        C714   1.388       .  A
C713        C841   1.486       .  S
C714        H716   1.082       .  S
N717        N718   1.322       .  A
N717        C721   1.343       .  A
N717       Cu725   2.070       .  S
N718        C719   1.347       .  A
N718       Cu724   2.076       .  S
C719        C720   1.383       .  A
C719        H722   1.082       .  S
C720        C721   1.381       .  A
C720        C800   1.466       .  S
C721        H723   1.082       .  S
Cu724       N727   2.076       .  S
Cu725       N735   2.069       .  S
Cu726       N728   2.073       .  S
Cu726       N734   2.072       .  S
N727        N728   1.323       .  A
N727        C731   1.345       .  A
N728        C729   1.345       .  A
C729        C730   1.381       .  A
C729        H732   1.082       .  S
C730        C731   1.382       .  A
C730        C815   1.466       .  S
C731        H733   1.082       .  S
N734        N735   1.321       .  A
N734        C738   1.345       .  A
N735        C736   1.344       .  A
C736        C737   1.384       .  A
C736        H739   1.082       .  S
C737        C738   1.384       .  A
C737        C856   1.478       .  S
C738        H740   1.082       .  S
N741        N742   1.323       .  A
N741        C745   1.345       .  A
N741       Cu749   2.075       .  S
N742        C743   1.345       .  A
N742       Cu748   2.076       .  S
C743        C744   1.381       .  A
C743        H746   1.082       .  S
C744        C745   1.382       .  A
C744        C801   1.466       .  S
C745        H747   1.082       .  S
Cu748       N751   2.075       .  S
Cu749       N759   2.075       .  S
Cu750       N752   2.065       .  S
Cu750       N758   2.064       .  S
N751        N752   1.322       .  A
N751        C755   1.347       .  A
N752        C753   1.342       .  A
C753        C754   1.380       .  A
C753        H756   1.082       .  S
C754        C755   1.384       .  A
C754        C814   1.466       .  S
C755        H757   1.082       .  S
N758        N759   1.318       .  A
N758        C762   1.342       .  A
N759        C760   1.343       .  A
C760        C761   1.394       .  A
C760        H763   1.080       .  S
C761        C762   1.392       .  A
C761        C880   1.499       .  S
C762        H764   1.077       .  S
N765        N766   1.323       .  A
N765        C769   1.345       .  A
N765       Cu773   2.076       .  S
N766        C767   1.345       .  A
N766       Cu772   2.074       .  S
C767        C768   1.381       .  A
C767        H770   1.082       .  S
C768        C769   1.382       .  A
C768        C813   1.466       .  S
C769        H771   1.082       .  S
Cu772       N775   2.074       .  S
Cu773       N783   2.076       .  S
Cu774       N776   2.069       .  S
Cu774       N782   2.069       .  S
N775        N776   1.322       .  A
N775        C779   1.347       .  A
N776        C777   1.343       .  A
C777        C778   1.381       .  A
C777        H780   1.082       .  S
C778        C779   1.383       .  A
C778        C802   1.466       .  S
C779        H781   1.082       .  S
N782        N783   1.321       .  A
N782        C786   1.344       .  A
N783        C784   1.345       .  A
C784        C785   1.388       .  A
C784        H787   1.082       .  S
C785        C786   1.387       .  A
C785        C844   1.486       .  S
C786        H788   1.080       .  S
O789        C799   1.278       .  A
O790        C800   1.276       .  A
O790       Cu797   1.998       .  S
O791        C801   1.277       .  A
O791      Cu1093   2.010   1_554  S
O792        C802   1.276       .  A
O793        C802   1.279       .  A
O794       C1097   1.277       .  A
O794       Cu798   2.008       .  S
O795        C800   1.279       .  A
O795       Cu798   2.020       .  S
O796       C1095   1.277       .  A
Cu797      O1087   2.010       .  S
Cu797      Cu798   2.378       .  S
C799        C820   1.466       .  S
C799       O1092   1.277   1_554  A
C801       O1090   1.277   1_554  A
O803        C813   1.278       .  A
O803       Cu811   2.012       .  S
O804        C814   1.276       .  A
O804       Cu811   1.997       .  S
O805        C815   1.277       .  A
O805       Cu811   2.010       .  S
O806        C816   1.276       .  A
O806       Cu811   1.997       .  S
O807        C816   1.279       .  A
O807       Cu812   2.022       .  S
O808        C815   1.277       .  A
O808       Cu812   2.008       .  S
O809        C814   1.278       .  A
O809       Cu812   2.019       .  S
O810        C813   1.277       .  A
O810       Cu812   2.005       .  S
Cu811      Cu812   2.377       .  S
C816        C830   1.467       .  S
N817        N818   1.323       .  A
N817        C821   1.345       .  A
N817       Cu825   2.073       .  S
N818        C819   1.345       .  A
N818       Cu824   2.074       .  S
C819        C820   1.381       .  A
C819        H822   1.082       .  S
C820        C821   1.382       .  A
C821        H823   1.082       .  S
Cu824       N827   2.074       .  S
Cu825       N835   2.073       .  S
Cu826       N828   2.072       .  S
Cu826       N834   2.071       .  S
N827        N828   1.322       .  A
N827        C831   1.347       .  A
N828        C829   1.343       .  A
C829        C830   1.382       .  A
C829        H832   1.082       .  S
C830        C831   1.383       .  A
C831        H833   1.082       .  S
N834        N835   1.322       .  A
N834        C838   1.345       .  A
N835        C836   1.345       .  A
C836        C837   1.385       .  A
C836        H839   1.082       .  S
C837        C838   1.384       .  A
C837        C865   1.479       .  S
C838        H840   1.082       .  S
C841        C842   1.404       .  A
C841        C846   1.411       .  A
C842        C843   1.401       .  A
C842        H847   1.083       .  S
C843        C844   1.411       .  A
C843        O848   1.371       .  S
C844        C845   1.404       .  A
C845        C846   1.401       .  A
C845        H849   1.083       .  S
C846        O850   1.371       .  S
O848        H852   0.992       .  S
O850        H851   0.992       .  S
C853        C854   1.403       .  A
C853        C858   1.409       .  A
C854        C855   1.399       .  A
C854        H859   1.083       .  S
C855        C856   1.409       .  A
C855        O860   1.371       .  S
C856        C857   1.403       .  A
C857        C858   1.399       .  A
C857        H861   1.083       .  S
C858        O862   1.371       .  S
O860        H864   0.992       .  S
O862        H863   0.992       .  S
C865        C866   1.404       .  A
C865        C870   1.409       .  A
C866        C867   1.400       .  A
C866        H871   1.083       .  S
C867        C868   1.409       .  A
C867        O872   1.371       .  S
C868        C869   1.404       .  A
C869        C870   1.400       .  A
C869        H873   1.083       .  S
C870        O874   1.371       .  S
O872        H876   0.992       .  S
O874        H875   0.992       .  S
C877        C878   1.407       .  A
C877        C882   1.415       .  A
C878        C879   1.400       .  A
C878        H883   1.080       .  S
C879        C880   1.415       .  A
C879        O884   1.369       .  S
C880        C881   1.406       .  A
C881        C882   1.399       .  A
C881        H885   1.080       .  S
C882        O886   1.369       .  S
O884        H888   0.992       .  S
O886        H887   0.992       .  S
N889        N890   1.322       .  A
N889        C893   1.342       .  A
N889       Cu897   2.065       .  S
N890        C891   1.347       .  A
N890       Cu896   2.076       .  S
C891        C892   1.384       .  A
C891        H894   1.082       .  S
C892        C893   1.380       .  A
C892        C923   1.466       .  S
C893        H895   1.082       .  S
Cu896       N899   2.076       .  S
Cu897       N907   2.065       .  S
Cu898       N900   2.074       .  S
Cu898       N906   2.074       .  S
N899        N900   1.323       .  A
N899        C903   1.345       .  A
N900        C901   1.345       .  A
C901        C902   1.382       .  A
C901        H904   1.082       .  S
C902        C903   1.381       .  A
C902        C988   1.466       .  S
C903        H905   1.082       .  S
N906        N907   1.318       .  A
N906        C910   1.343       .  A
N907        C908   1.342       .  A
C908        C909   1.392       .  A
C908        H911   1.077       .  S
C909        C910   1.394       .  A
C909       C1173   1.499       .  S
C910        H912   1.080       .  S
O913        C923   1.276       .  A
O914        C924   1.278   1_545  A
O915        C925   1.277   1_545  A
O915       Cu921   2.009       .  S
O916        C926   1.276       .  A
O917        C926   1.279       .  A
O918        C925   1.277       .  A
O919        C924   1.277       .  A
O920        C923   1.278       .  A
O920       Cu922   2.020       .  S
C924       C1002   1.467       .  S
C925        C964   1.466       .  S
C926        C940   1.466       .  S
N927        N928   1.323       .  A
N927        C931   1.345       .  A
N927       Cu935   2.074       .  S
N928        C929   1.345       .  A
N928       Cu934   2.074       .  S
C929        C930   1.382       .  A
C929        H932   1.082       .  S
C930        C931   1.382       .  A
C930        C986   1.466       .  S
C931        H933   1.082       .  S
Cu934       N937   2.074       .  S
Cu935       N945   2.074       .  S
Cu936       N938   2.071       .  S
Cu936       N944   2.071       .  S
N937        N938   1.322       .  A
N937        C941   1.347       .  A
N938        C939   1.343       .  A
C939        C940   1.381       .  A
C939        H942   1.082       .  S
C940        C941   1.383       .  A
C941        H943   1.082       .  S
N944        N945   1.322       .  A
N944        C948   1.345       .  A
N945        C946   1.345       .  A
C946        C947   1.385       .  A
C946        H949   1.082       .  S
C947        C948   1.384       .  A
C947       C1164   1.479       .  S
C948        H950   1.082       .  S
N951        N952   1.322       .  A
N951        C955   1.343       .  A
N951       Cu959   2.070       .  S
N952        C953   1.347       .  A
N952       Cu958   2.076       .  S
C953        C954   1.383       .  A
C953        H956   1.082   1_565  S
C954        C955   1.381       .  A
C954        C985   1.467   1_565  S
C955        H957   1.082       .  S
Cu958       N961   2.076       .  S
Cu959       N969   2.070       .  S
Cu960       N962   2.072       .  S
Cu960       N968   2.072       .  S
N961        N962   1.323       .  A
N961        C965   1.345       .  A
N962        C963   1.345       .  A
C963        C964   1.381       .  A
C963        H966   1.082       .  S
C964        C965   1.382       .  A
C965        H967   1.082   1_565  S
N968        N969   1.321       .  A
N968        C972   1.345       .  A
N969        C970   1.344       .  A
C970        C971   1.384       .  A
C970        H973   1.082       .  S
C971        C972   1.384       .  A
C971       C1149   1.478       .  S
C972        H974   1.082       .  S
O975        C985   1.279       .  A
O975       Cu983   2.021       .  S
O976        C986   1.277       .  A
O976       Cu983   2.008       .  S
O977        C987   1.279       .  A
O977       Cu983   2.021       .  S
O978        C988   1.277       .  A
O978       Cu983   2.007       .  S
O979        C988   1.277       .  A
O979       Cu984   2.010       .  S
O980        C987   1.276   1_565  A
O980       Cu984   1.995   1_565  S
O981        C986   1.278       .  A
O981       Cu984   2.011       .  S
O982        C985   1.276   1_565  A
O982       Cu984   1.999   1_565  S
Cu983      Cu984   2.377       .  S
C987        C992   1.466   1_545  S
N989        N990   1.322       .  A
N989        C993   1.343       .  A
N989       Cu997   2.068       .  S
N990        C991   1.347   1_565  A
N990       Cu996   2.074       .  S
C991        C992   1.383   1_545  A
C991        H994   1.082       .  S
C992        C993   1.381       .  A
C993        H995   1.082       .  S
Cu996       N999   2.074       .  S
Cu997      N1007   2.068       .  S
Cu998      N1000   2.077       .  S
Cu998      N1006   2.076       .  S
N999       N1000   1.323       .  A
N999       C1003   1.345       .  A
N1000      C1001   1.345       .  A
C1001      C1002   1.382       .  A
C1001      H1004   1.082       .  S
C1002      C1003   1.381       .  A
C1003      H1005   1.082   1_565  S
N1006      N1007   1.321       .  A
N1006      C1010   1.345       .  A
N1007      C1008   1.344       .  A
C1008      C1009   1.387       .  A
C1008      H1011   1.080       .  S
C1009      C1010   1.388       .  A
C1009      C1137   1.486       .  S
C1010      H1012   1.082       .  S
N1013      N1014   1.322       .  A
N1013      C1017   1.343       .  A
N1013     Cu1021   2.070       .  S
N1014      C1015   1.347       .  A
N1014     Cu1020   2.076       .  S
C1015      C1016   1.383       .  A
C1015      H1018   1.082       .  S
C1016      C1017   1.381       .  A
C1016      C1096   1.466       .  S
C1017      H1019   1.082       .  S
Cu1020     N1023   2.076       .  S
Cu1021     N1031   2.069       .  S
Cu1022     N1024   2.073       .  S
Cu1022     N1030   2.072       .  S
N1023      N1024   1.323       .  A
N1023      C1027   1.345       .  A
N1024      C1025   1.345       .  A
C1025      C1026   1.381       .  A
C1025      H1028   1.082       .  S
C1026      C1027   1.382       .  A
C1026      C1111   1.466       .  S
C1027      H1029   1.082       .  S
N1030      N1031   1.321       .  A
N1030      C1034   1.345       .  A
N1031      C1032   1.344       .  A
C1032      C1033   1.384       .  A
C1032      H1035   1.082       .  S
C1033      C1034   1.384       .  A
C1033      C1152   1.478       .  S
C1034      H1036   1.082       .  S
N1037      N1038   1.323       .  A
N1037      C1041   1.345       .  A
N1037     Cu1045   2.075       .  S
N1038      C1039   1.345       .  A
N1038     Cu1044   2.076       .  S
C1039      C1040   1.381       .  A
C1039      H1042   1.082       .  S
C1040      C1041   1.382       .  A
C1040      C1097   1.466       .  S
C1041      H1043   1.082       .  S
Cu1044     N1047   2.075       .  S
Cu1045     N1055   2.075       .  S
Cu1046     N1048   2.065       .  S
Cu1046     N1054   2.064       .  S
N1047      N1048   1.322       .  A
N1047      C1051   1.347       .  A
N1048      C1049   1.342       .  A
C1049      C1050   1.380       .  A
C1049      H1052   1.082       .  S
C1050      C1051   1.384       .  A
C1050      C1110   1.466       .  S
C1051      H1053   1.082       .  S
N1054      N1055   1.318       .  A
N1054      C1058   1.342       .  A
N1055      C1056   1.343       .  A
C1056      C1057   1.394       .  A
C1056      H1059   1.080       .  S
C1057      C1058   1.392       .  A
C1057      C1176   1.499       .  S
C1058      H1060   1.077       .  S
N1061      N1062   1.323       .  A
N1061      C1065   1.345       .  A
N1061     Cu1069   2.076       .  S
N1062      C1063   1.345       .  A
N1062     Cu1068   2.074       .  S
C1063      C1064   1.381       .  A
C1063      H1066   1.082       .  S
C1064      C1065   1.382       .  A
C1064      C1109   1.466       .  S
C1065      H1067   1.082       .  S
Cu1068     N1071   2.074       .  S
Cu1069     N1079   2.076       .  S
Cu1070     N1072   2.069       .  S
Cu1070     N1078   2.069       .  S
N1071      N1072   1.322       .  A
N1071      C1075   1.347       .  A
N1072      C1073   1.343       .  A
C1073      C1074   1.381       .  A
C1073      H1076   1.082       .  S
C1074      C1075   1.383       .  A
C1074      C1098   1.466       .  S
C1075      H1077   1.082       .  S
N1078      N1079   1.321       .  A
N1078      C1082   1.344       .  A
N1079      C1080   1.345       .  A
C1080      C1081   1.388       .  A
C1080      H1083   1.082       .  S
C1081      C1082   1.387       .  A
C1081      C1140   1.486       .  S
C1082      H1084   1.080       .  S
O1085      C1095   1.278       .  A
O1086      C1096   1.276       .  A
O1086     Cu1093   1.998       .  S
O1087      C1097   1.277       .  A
O1088      C1098   1.276       .  A
O1089      C1098   1.279       .  A
O1090     Cu1094   2.008       .  S
O1091      C1096   1.279       .  A
O1091     Cu1094   2.020       .  S
Cu1093    Cu1094   2.378       .  S
C1095      C1116   1.466       .  S
O1099      C1109   1.278       .  A
O1099     Cu1107   2.012       .  S
O1100      C1110   1.276       .  A
O1100     Cu1107   1.997       .  S
O1101      C1111   1.277       .  A
O1101     Cu1107   2.010       .  S
O1102      C1112   1.276       .  A
O1102     Cu1107   1.997       .  S
O1103      C1112   1.279       .  A
O1103     Cu1108   2.022       .  S
O1104      C1111   1.277       .  A
O1104     Cu1108   2.008       .  S
O1105      C1110   1.278       .  A
O1105     Cu1108   2.019       .  S
O1106      C1109   1.277       .  A
O1106     Cu1108   2.005       .  S
Cu1107    Cu1108   2.377       .  S
C1112      C1126   1.467       .  S
N1113      N1114   1.323       .  A
N1113      C1117   1.345       .  A
N1113     Cu1121   2.073       .  S
N1114      C1115   1.345       .  A
N1114     Cu1120   2.074       .  S
C1115      C1116   1.381       .  A
C1115      H1118   1.082       .  S
C1116      C1117   1.382       .  A
C1117      H1119   1.082       .  S
Cu1120     N1123   2.074       .  S
Cu1121     N1131   2.073       .  S
Cu1122     N1124   2.072       .  S
Cu1122     N1130   2.071       .  S
N1123      N1124   1.322       .  A
N1123      C1127   1.347       .  A
N1124      C1125   1.343       .  A
C1125      C1126   1.382       .  A
C1125      H1128   1.082       .  S
C1126      C1127   1.383       .  A
C1127      H1129   1.082       .  S
N1130      N1131   1.322       .  A
N1130      C1134   1.345       .  A
N1131      C1132   1.345       .  A
C1132      C1133   1.385       .  A
C1132      H1135   1.082       .  S
C1133      C1134   1.384       .  A
C1133      C1161   1.479       .  S
C1134      H1136   1.082       .  S
C1137      C1138   1.404       .  A
C1137      C1142   1.411       .  A
C1138      C1139   1.401       .  A
C1138      H1143   1.083       .  S
C1139      C1140   1.411       .  A
C1139      O1144   1.371       .  S
C1140      C1141   1.404       .  A
C1141      C1142   1.401       .  A
C1141      H1145   1.083       .  S
C1142      O1146   1.371       .  S
O1144      H1148   0.992       .  S
O1146      H1147   0.992       .  S
C1149      C1150   1.403       .  A
C1149      C1154   1.409       .  A
C1150      C1151   1.399       .  A
C1150      H1155   1.083       .  S
C1151      C1152   1.409       .  A
C1151      O1156   1.371       .  S
C1152      C1153   1.403       .  A
C1153      C1154   1.399       .  A
C1153      H1157   1.083       .  S
C1154      O1158   1.371       .  S
O1156      H1160   0.992       .  S
O1158      H1159   0.992       .  S
C1161      C1162   1.404       .  A
C1161      C1166   1.409       .  A
C1162      C1163   1.400       .  A
C1162      H1167   1.083       .  S
C1163      C1164   1.409       .  A
C1163      O1168   1.371       .  S
C1164      C1165   1.404       .  A
C1165      C1166   1.400       .  A
C1165      H1169   1.083       .  S
C1166      O1170   1.371       .  S
O1168      H1172   0.992       .  S
O1170      H1171   0.992       .  S
C1173      C1174   1.407       .  A
C1173      C1178   1.415       .  A
C1174      C1175   1.400       .  A
C1174      H1179   1.080       .  S
C1175      C1176   1.415       .  A
C1175      O1180   1.369       .  S
C1176      C1177   1.406       .  A
C1177      C1178   1.399       .  A
C1177      H1181   1.080       .  S
C1178      O1182   1.369       .  S
O1180      H1184   0.992       .  S
O1182      H1183   0.992       .  S
