geometry optimzed in LAMMPS
_audit_creation_date              2020-11-30 
_audit_creation_method            'lammps2cif' 
_symmetry_space_group_name_H-M    'P1' 
_symmetry_Int_Tables_number       1 
_symmetry_cell_setting            triclinic 
loop_ 
_symmetry_equiv_pos_as_xyz 
  x,y,z 
_cell_length_a                    46.52784705 
_cell_length_b                    46.396168210833764 
_cell_length_c                    46.19806269462437 
_cell_angle_alpha                 90.00232086037967 
_cell_angle_beta                  89.96623849524352 
_cell_angle_gamma                 90.19193001521907 
loop_ 
_atom_site_label 
_atom_site_type_symbol 
_atom_site_fract_x 
_atom_site_fract_y 
_atom_site_fract_z 
_atom_site_charge 
C1          C  0.99221195  0.26866165  0.19652406     0.03700
C2          C  0.99880828  0.29047082  0.21657600    -0.12400
C3          C  0.00037380  0.28478357  0.24620606     0.01200
C4          C  0.99515284  0.25668298  0.25607547    -0.11000
C5          C  0.98869165  0.23426183  0.23667347     0.03700
C6          C  0.98626225  0.24053954  0.20679437    -0.10400
H7          H  0.00235651  0.31233815  0.20906128     0.09300
H8          H  0.99510578  0.25211924  0.27903507     0.06800
H9          H  0.98080085  0.22356800  0.19164851     0.06700
O10         O  0.01309592  0.43745629  0.42423484    -0.79500
O11         O  0.01257990  0.43121645  0.58929820    -0.81100
O12         O  0.06320729  0.39960713  0.50772737    -0.78100
O13         O  0.96780332  0.39682173  0.50606796    -0.76500
O14         O  0.93208971  0.43011480  0.51220957    -0.78300
O15         O  0.09703423  0.43542555  0.50391707    -0.79200
O16         O  0.00669613  0.39798995  0.55305643    -0.80600
O17         O  0.01594962  0.40120799  0.45780331    -0.80800
Eu18       Eu  0.01481392  0.42204367  0.50640624     2.39200
O19         O  0.98696281  0.44962585  0.53815912    -0.88300
O20         O  0.04087070  0.45391586  0.47654713    -0.92000
C21         C  0.01546335  0.41068923  0.43159471     1.02700
C22         C  0.00600090  0.40597765  0.57981928     1.02600
C23         C  0.08956342  0.40859496  0.50616560     1.02500
C24         C  0.94111461  0.40403122  0.50894601     1.00400
H25         H  0.05740590  0.43876555  0.54658795     0.30100
O26         O  0.04493876  0.45097733  0.53530278    -1.00700
H27         H  0.97104827  0.43928534  0.46749905     0.30100
O28         O  0.98309493  0.45126962  0.47957504    -1.03300
O29         O  0.01563761  0.52407323  0.59366430    -0.80500
O30         O  0.00425738  0.53171962  0.42845533    -0.80000
O31         O  0.09879050  0.48005903  0.54997986    -0.78500
O32         O  0.93384430  0.47553247  0.56115521    -0.81800
O33         O  0.92776469  0.47792562  0.46639806    -0.79700
O34         O  0.09259039  0.48522463  0.45628837    -0.78300
O35         O  0.05790790  0.56403397  0.51575299    -0.79800
O36         O  0.96226784  0.56190342  0.51277243    -0.81800
O37         O  0.09372289  0.53052303  0.51131847    -0.78500
O38         O  0.92998140  0.52452409  0.51184619    -0.81200
O39         O  0.06595330  0.47703632  0.58679029    -0.76900
O40         O  0.05511952  0.48691815  0.42418936    -0.77000
O41         O  0.96001370  0.48271677  0.42925362    -0.76600
O42         O  0.97081222  0.47683993  0.59381201    -0.80100
O43         O  0.01112312  0.56032023  0.56039988    -0.79500
O44         O  0.00759998  0.56497883  0.46497223    -0.77800
Eu45       Eu  0.01661287  0.47865562  0.56700393     2.39800
Eu46       Eu  0.00923525  0.48356513  0.45020302     2.39600
Eu47       Eu  0.07149222  0.48248470  0.50507232     2.38400
Eu48       Eu  0.95470563  0.47807504  0.51213222     2.39900
Eu49       Eu  0.01086103  0.53950916  0.51150482     2.39800
O50         O  0.98116825  0.50993418  0.48290495    -0.92300
O51         O  0.04297969  0.50982360  0.53710587    -0.91200
C52         C  0.01332715  0.55079373  0.58657832     1.02900
C53         C  0.00449074  0.55783105  0.43815284     1.01600
C54         C  0.09197490  0.47769798  0.57686528     1.01000
C55         C  0.94386336  0.47542288  0.58724306     1.03000
C56         C  0.93410603  0.48028780  0.43931608     1.01900
C57         C  0.08213104  0.48671579  0.43044277     1.00800
C58         C  0.08464225  0.55651811  0.51541784     1.00900
C59         C  0.93635349  0.55156647  0.51197433     1.03500
H60         H  0.05070569  0.52591015  0.46700942     0.30800
O61         O  0.03974574  0.51279406  0.47897423    -1.04400
H62         H  0.97240802  0.51877798  0.55400162     0.32900
O63         O  0.98429678  0.50776525  0.54091754    -1.07000
C64         C  0.00033369  0.75336447  0.76178076     0.03700
C65         C  0.00771420  0.73215594  0.74141453    -0.12400
C66         C  0.01274163  0.73913845  0.71237741     0.01200
C67         C  0.01152258  0.76797749  0.70386368    -0.11000
C68         C  0.00340591  0.78977094  0.72342890     0.03700
C69         C  0.99872392  0.78246464  0.75281374    -0.10400
H70         H  0.01005223  0.71008408  0.74858870     0.09300
H71         H  0.01612076  0.77337410  0.68149923     0.06800
H72         H  0.99266856  0.79898398  0.76819516     0.06700
C73         C  0.94418347  0.26314577  0.74778316     0.03700
C74         C  0.95382025  0.23628672  0.73687065    -0.12400
C75         C  0.94381939  0.22609052  0.70974055     0.01200
C76         C  0.92346800  0.24257917  0.69454446    -0.11000
C77         C  0.91424168  0.26934837  0.70479552     0.03700
C78         C  0.92339083  0.27853688  0.73215542    -0.10400
H79         H  0.97002363  0.22427857  0.74854313     0.09300
H80         H  0.91593058  0.23528325  0.67358324     0.06800
H81         H  0.91522163  0.29840870  0.74111593     0.06700
C82         C  0.99296831  0.71740252  0.21784285     0.03700
C83         C  0.99347093  0.74597922  0.22813043    -0.12400
C84         C  0.99063992  0.75174045  0.25801064     0.01200
C85         C  0.98728985  0.72836232  0.27735089    -0.11000
C86         C  0.98605308  0.69986708  0.26713265     0.03700
C87         C  0.98871407  0.69475750  0.23751132    -0.10400
H88         H  0.99673720  0.76358079  0.21305310     0.09300
H89         H  0.98732853  0.73213533  0.30043084     0.06800
H90         H  0.98754822  0.67274840  0.22969366     0.06700
O91         O  0.00597919  0.03846013  0.38445348    -0.79500
O92         O  0.98523077  0.05762218  0.54805229    -0.81100
O93         O  0.94308778  0.07663072  0.45283500    -0.78100
O94         O  0.03726729  0.08745966  0.46940487    -0.76500
O95         O  0.07335607  0.05566933  0.47987937    -0.78300
O96         O  0.91115961  0.03929438  0.45868188    -0.79200
O97         O  0.98593592  0.08842659  0.50930591    -0.80600
O98         O  0.99638919  0.07724022  0.41353585    -0.80800
Eu99       Eu  0.99205018  0.05965460  0.46451745     2.39200
O100        O  0.01870507  0.03589575  0.50068963    -0.88300
O101        O  0.96897253  0.02383647  0.43714959    -0.92000
C102        C  0.00201710  0.06563502  0.38862716     1.02700
C103        C  0.98456792  0.08306229  0.53678312     1.02600
C104        C  0.91751856  0.06557983  0.45264504     1.02500
C105        C  0.06359622  0.08133289  0.47583974     1.00400
H106        H  0.94702930  0.04394160  0.50391711     0.30100
O107        O  0.96140211  0.03164956  0.49470772    -1.00700
H108        H  0.03984039  0.04125119  0.43142070     0.30100
O109        O  0.02710008  0.02969443  0.44328889    -1.03300
O110        O  0.98899949  0.96385748  0.56087053    -0.80500
O111        O  0.00708085  0.94487246  0.39615346    -0.80000
O112        O  0.91000665  0.99672231  0.51250859    -0.78500
O113        O  0.07092998  0.01264536  0.53116409    -0.81800
O114        O  0.08248463  0.00203315  0.43484328    -0.79700
O115        O  0.92050957  0.99314093  0.41651369    -0.78300
O116        O  0.95691669  0.91622319  0.47661309    -0.79800
O117        O  0.05032959  0.92462878  0.48731387    -0.81800
O118        O  0.91934183  0.94653723  0.46682521    -0.78500
O119        O  0.08198674  0.96247421  0.48768775    -0.81200
O120        O  0.94004135  0.00553170  0.55063974    -0.76900
O121        O  0.95874653  0.99246870  0.38529527    -0.77000
O122        O  0.05273896  0.99442395  0.39603695    -0.76600
O123        O  0.03102776  0.01409930  0.56015601    -0.80100
O124        O  0.99643366  0.92621583  0.52975050    -0.79500
O125        O  0.00777100  0.91508683  0.43567115    -0.77800
Eu126      Eu  0.98863770  0.00784733  0.53049763     2.39800
Eu127      Eu  0.00342724  0.99477527  0.41439147     2.39600
Eu128      Eu  0.93859550  0.99573526  0.46680525     2.38400
Eu129      Eu  0.05422722  0.00666732  0.47995064     2.39900
Eu130      Eu  0.00148667  0.94389840  0.47977391     2.39800
O131        O  0.03145988  0.97214043  0.45035812    -0.92300
O132        O  0.96611396  0.97242437  0.50221423    -0.91200
C133        C  0.99208991  0.93673808  0.55525651     1.02900
C134        C  0.00828841  0.91972499  0.40814058     1.01600
C135        C  0.91497646  0.00065890  0.53983183     1.01000
C136        C  0.05832955  0.01463429  0.55617432     1.03000
C137        C  0.07776207  0.99755515  0.40762181     1.01900
C138        C  0.93148216  0.99266221  0.39076284     1.00800
C139        C  0.93031518  0.92138203  0.47104154     1.00900
C140        C  0.07591327  0.93539944  0.48950254     1.03500
H141        H  0.96371284  0.95262866  0.43215135     0.30800
O142        O  0.97334559  0.96665849  0.44406289    -1.04400
H143        H  0.03501097  0.96881325  0.52380752     0.32900
O144        O  0.02392340  0.97842844  0.50909146    -1.07000
C145        C  0.25822709  0.26156278  0.50113689     0.03700
C146        C  0.23750446  0.23957464  0.49848558    -0.12400
C147        C  0.24526706  0.21048309  0.49896554     0.01200
C148        C  0.27426236  0.20325277  0.50050367    -0.11000
C149        C  0.29572037  0.22463802  0.50180835     0.03700
C150        C  0.28760652  0.25397508  0.50251419    -0.10400
H151        H  0.21516948  0.24531370  0.49553763     0.09300
H152        H  0.28014871  0.18065953  0.50106431     0.06800
H153        H  0.30390821  0.27062231  0.50406437     0.06700
C154        C  0.73790469  0.22016066  0.48356650     0.03700
C155        C  0.75574694  0.20569865  0.46368379    -0.12400
C156        C  0.78203569  0.21759270  0.45492616     0.01200
C157        C  0.79013403  0.24453653  0.46551350    -0.11000
C158        C  0.77239158  0.26036531  0.48424526     0.03700
C159        C  0.74608453  0.24794478  0.49340745    -0.10400
H160        H  0.74949715  0.18461752  0.45595506     0.09300
H161        H  0.81127619  0.25270640  0.45994430     0.06800
H162        H  0.73255963  0.25938237  0.50861936     0.06700
C163        C  0.74561222  0.75428756  0.50458635     0.03700
C164        C  0.75982180  0.72939648  0.51485581    -0.12400
C165        C  0.78516321  0.71954464  0.50104229     0.01200
C166        C  0.79704923  0.73615502  0.47849571    -0.11000
C167        C  0.78408194  0.76195217  0.46968443     0.03700
C168        C  0.75782609  0.76992220  0.48170418    -0.10400
H169        H  0.75112253  0.71768187  0.53316455     0.09300
H170        H  0.81731512  0.72983796  0.46891840     0.06800
H171        H  0.74809584  0.79007061  0.47500980     0.06700
C172        C  0.23693302  0.71272260  0.52060158     0.03700
C173        C  0.21310238  0.73123784  0.51960059    -0.12400
C174        C  0.21661903  0.76100381  0.51665098     0.01200
C175        C  0.24449471  0.77235432  0.51435440    -0.11000
C176        C  0.26878007  0.75438803  0.51600770     0.03700
C177        C  0.26480512  0.72434901  0.51829838    -0.10400
H178        H  0.19154619  0.72231873  0.52052106     0.09300
H179        H  0.24735286  0.79509337  0.51008953     0.06800
H180        H  0.28326127  0.71017853  0.51884390     0.06700
C181        C  0.72710975  0.00372048  0.20165689     0.03700
C182        C  0.70423868  0.99816455  0.22077961    -0.12400
C183        C  0.70905005  0.99309932  0.25011477     0.01200
C184        C  0.73724943  0.99397802  0.26064549    -0.11000
C185        C  0.76075783  0.99919476  0.24222405     0.03700
C186        C  0.75563758  0.00323867  0.21229754    -0.10400
H187        H  0.68237004  0.99751389  0.21268747     0.09300
H188        H  0.74115771  0.99087010  0.28347137     0.06800
H189        H  0.77347388  0.00711257  0.19771725     0.06700
O190        O  0.47000169  0.06792948  0.50929736    -0.79500
O191        O  0.45364354  0.90325494  0.50761125    -0.81100
O192        O  0.42693623  0.99153238  0.46513753    -0.78100
O193        O  0.43062352  0.98442593  0.55986542    -0.76500
O194        O  0.46699616  0.98029212  0.59304989    -0.78300
O195        O  0.45999656  0.98868919  0.42851846    -0.79200
O196        O  0.42293741  0.94161689  0.51014491    -0.80600
O197        O  0.43272750  0.03559780  0.51108572    -0.80800
Eu198      Eu  0.45190854  0.98622403  0.51119313     2.39200
O199        O  0.47939988  0.95385489  0.53863139    -0.88300
O200        O  0.48257956  0.01377516  0.48159349    -0.92000
C201        C  0.44294896  0.06146572  0.50964221     1.02700
C202        C  0.42818271  0.91431575  0.50904539     1.02600
C203        C  0.43410980  0.99148368  0.43823419     1.02500
C204        C  0.44033966  0.98167341  0.58591582     1.00400
H205        H  0.46299932  0.94482275  0.46709261     0.30100
O206        O  0.47638606  0.95518376  0.47922744    -1.00700
H207        H  0.47376586  0.02446882  0.55249822     0.30100
O208        O  0.48466973  0.01211866  0.53990974    -1.03300
O209        O  0.54856274  0.89522589  0.50481059    -0.80500
O210        O  0.56470828  0.05970929  0.51070148    -0.80000
O211        O  0.50589447  0.93657577  0.42524804    -0.78500
O212        O  0.51029954  0.93079945  0.58947047    -0.81800
O213        O  0.51425412  0.02775134  0.59127171    -0.79700
O214        O  0.51283047  0.03053258  0.42721025    -0.78300
O215        O  0.58967646  0.97296503  0.45866698    -0.79800
O216        O  0.59358967  0.97327037  0.55218602    -0.81800
O217        O  0.55389861  0.97781197  0.42507135    -0.78500
O218        O  0.56074859  0.97372938  0.58914017    -0.81200
O219        O  0.50309758  0.90000663  0.45842874    -0.76900
O220        O  0.51674003  0.06467028  0.46278745    -0.77000
O221        O  0.51496946  0.06378136  0.55734853    -0.76600
O222        O  0.50347475  0.89702322  0.55387755    -0.80100
O223        O  0.58705257  0.92615140  0.50654393    -0.79500
O224        O  0.59571265  0.02155077  0.50836682    -0.77800
Eu225      Eu  0.50347752  0.92247036  0.50694350     2.39800
Eu226      Eu  0.51519863  0.04007700  0.51007140     2.39600
Eu227      Eu  0.50783221  0.98307092  0.45038151     2.38400
Eu228      Eu  0.51258692  0.97968254  0.56740115     2.39900
Eu229      Eu  0.56776164  0.97607936  0.50666740     2.39800
O230        O  0.54300899  0.00764820  0.53788255    -0.92300
O231        O  0.53455991  0.95047343  0.47813638    -0.91200
C232        C  0.57578388  0.90059545  0.50558897     1.02900
C233        C  0.59025649  0.04884404  0.50968545     1.01600
C234        C  0.50464392  0.90968773  0.43223096     1.01000
C235        C  0.50686685  0.90450172  0.58062448     1.03000
C236        C  0.51447530  0.05465076  0.58370456     1.01900
C237        C  0.51580069  0.05678801  0.43597278     1.00800
C238        C  0.58039412  0.97411627  0.43243719     1.00900
C239        C  0.58660051  0.97188397  0.57904278     1.03500
H240        H  0.55370180  0.02001022  0.46688635     0.30800
O241        O  0.54084872  0.00899548  0.47904254    -1.04400
H242        H  0.54788926  0.93510808  0.54699190     0.32900
O243        O  0.53664615  0.94847494  0.53571423    -1.07000
C244        C  0.25092495  0.99932459  0.75522344     0.03700
C245        C  0.26929959  0.98463421  0.73620939    -0.12400
C246        C  0.26118959  0.97832497  0.70779028     0.01200
C247        C  0.23413802  0.98685157  0.69816844    -0.11000
C248        C  0.21565575  0.00286695  0.71597717     0.03700
C249        C  0.22438065  0.00968994  0.74455958    -0.10400
H250        H  0.29084803  0.97992414  0.74335776     0.09300
H251        H  0.22817650  0.98261735  0.67587079     0.06800
H252        H  0.21061125  0.02253076  0.75833913     0.06700
C253        C  0.73757167  0.98668923  0.75561721     0.03700
C254        C  0.76266627  0.99610911  0.74132687    -0.12400
C255        C  0.77207865  0.98185304  0.71603732     0.01200
C256        C  0.75687444  0.95741723  0.70617648    -0.11000
C257        C  0.73164028  0.94817378  0.72006524     0.03700
C258        C  0.72287136  0.96243122  0.74515575    -0.10400
H259        H  0.77394829  0.01509345  0.74898120     0.09300
H260        H  0.76462403  0.94615595  0.68730277     0.06800
H261        H  0.70343366  0.95537917  0.75607199     0.06700
C262        C  0.27579557  0.99566736  0.21376026     0.03700
C263        C  0.29831608  0.99934693  0.23366360    -0.12400
C264        C  0.29292624  0.00221611  0.26322145     0.01200
C265        C  0.26455134  0.00220602  0.27316184    -0.11000
C266        C  0.24149988  0.99821647  0.25388089     0.03700
C267        C  0.24719433  0.99571561  0.22395339    -0.10400
H268        H  0.32036660  0.00004862  0.22609800     0.09300
H269        H  0.26036877  0.00600581  0.29590064     0.06800
H270        H  0.22958679  0.99300536  0.20885731     0.06700
O271        O  0.58039785  0.01338670  0.01751066    -0.79500
O272        O  0.41701330  0.99160799  0.02430854    -0.81100
O273        O  0.49256464  0.04663302  0.05664437    -0.78100
O274        O  0.50510282  0.95176820  0.05126385    -0.76500
O275        O  0.50584350  0.91925227  0.01400794    -0.78300
O276        O  0.48740745  0.08369342  0.02433643    -0.79200
O277        O  0.45369857  0.99164512  0.05732568    -0.80600
O278        O  0.54670638  0.00750516  0.05320193    -0.80800
Eu279      Eu  0.49900766  0.00068556  0.03112894     2.39200
O280        O  0.47184677  0.97031628  0.00110422    -0.88300
O281        O  0.52346795  0.03505838  0.00271071    -0.92000
C282        C  0.57271099  0.01188010  0.04441653     1.02700
C283        C  0.42686353  0.98958462  0.05041337     1.02600
C284        C  0.48871107  0.07342531  0.05015301     1.02500
C285        C  0.50665907  0.92584910  0.04106742     1.00400
H286        H  0.45261785  0.03807082  0.01822440     0.30100
O287        O  0.46548066  0.02837370  0.00501541    -1.00700
H288        H  0.54406285  0.96555681  0.01005824     0.30100
O289        O  0.53031654  0.97674906  0.99917265    -1.03300
O290        O  0.41111589  0.99872564  0.92933144    -0.80500
O291        O  0.57591967  0.01417538  0.92196444    -0.80000
O292        O  0.44022904  0.08160791  0.97837889    -0.78500
O293        O  0.45780862  0.91769415  0.96904543    -0.81800
O294        O  0.55297104  0.92829999  0.96529951    -0.79700
O295        O  0.53570143  0.09102101  0.97650997    -0.78300
O296        O  0.47865014  0.05557747  0.89466883    -0.79800
O297        O  0.49805977  0.96222649  0.88696104    -0.81800
O298        O  0.47969839  0.08840167  0.93171670    -0.78500
O299        O  0.50488633  0.92648896  0.92033774    -0.81200
O300        O  0.41000703  0.04254771  0.97843881    -0.76900
O301        O  0.57380119  0.06022318  0.97219461    -0.77000
O302        O  0.58364344  0.96693174  0.96722534    -0.76600
O303        O  0.41940059  0.94812662  0.97347675    -0.80100
O304        O  0.44456283  0.00186912  0.89303889    -0.79500
O305        O  0.53966306  0.01279148  0.88841403    -0.77800
Eu306      Eu  0.43797381  0.99772523  0.97537430     2.39800
Eu307      Eu  0.55452141  0.01115052  0.97050604     2.39600
Eu308      Eu  0.49013193  0.06259025  0.97624664     2.38400
Eu309      Eu  0.50280557  0.94647500  0.96891088     2.39900
Eu310      Eu  0.49308700  0.00788591  0.91388439     2.39800
O311        O  0.52664711  0.98103939  0.94065762    -0.92300
O312        O  0.46305391  0.03137786  0.94699838    -0.91200
C313        C  0.41844578  0.99972894  0.90235317     1.02900
C314        C  0.56650332  0.01406541  0.89568043     1.01600
C315        C  0.41489334  0.06994814  0.97879827     1.01000
C316        C  0.43055173  0.92278788  0.97114543     1.03000
C317        C  0.57848758  0.93962030  0.96540566     1.01900
C318        C  0.56297619  0.08561324  0.97499545     1.00800
C319        C  0.47481721  0.08107366  0.90533525     1.00900
C320        C  0.50247330  0.93570996  0.89416532     1.03500
H321        H  0.53093730  0.05300083  0.93135039     0.30800
O322        O  0.52109320  0.03895496  0.94336020    -1.04400
H323        H  0.45772046  0.96094127  0.93048210     0.32900
O324        O  0.46883312  0.97364728  0.94273692    -1.07000
C325        C  0.50946289  0.21575146  0.28442699     0.03700
C326        C  0.50629014  0.24416778  0.27371523    -0.12400
C327        C  0.50352250  0.24899860  0.24356716     0.01200
C328        C  0.50457146  0.22522911  0.22472760    -0.11000
C329        C  0.50608530  0.19708268  0.23532680     0.03700
C330        C  0.50868977  0.19252040  0.26494045    -0.10400
H331        H  0.50606222  0.26220957  0.28858530     0.09300
H332        H  0.50443431  0.22863790  0.20153055     0.06800
H333        H  0.50963260  0.17055615  0.27292178     0.06700
C334        C  0.50743887  0.72938387  0.22362257     0.03700
C335        C  0.50612329  0.73459010  0.25376983    -0.12400
C336        C  0.50465690  0.76301528  0.26448004     0.01200
C337        C  0.50316041  0.78598797  0.24471794    -0.11000
C338        C  0.50428136  0.78133925  0.21487403     0.03700
C339        C  0.50610636  0.75301132  0.20442917    -0.10400
H340        H  0.50689393  0.71668181  0.26879794     0.09300
H341        H  0.50104883  0.80787551  0.25264407     0.06800
H342        H  0.50524272  0.74934476  0.18133614     0.06700
C343        C  0.49400306  0.69485696  0.76180502     0.03700
C344        C  0.49239693  0.70318410  0.73228946    -0.12400
C345        C  0.49550808  0.73259368  0.72452538     0.01200
C346        C  0.49899123  0.75314331  0.74652365    -0.11000
C347        C  0.50163928  0.74505226  0.77549114     0.03700
C348        C  0.49963304  0.71604361  0.78285496    -0.10400
H349        H  0.48870728  0.68709679  0.71570806     0.09300
H350        H  0.49868023  0.77578700  0.74091811     0.06800
H351        H  0.50230152  0.71001748  0.80536545     0.06700
C352        C  0.48015485  0.22280382  0.72469047     0.03700
C353        C  0.48872628  0.24756663  0.74003391    -0.12400
C354        C  0.47365134  0.25591066  0.76514574     0.01200
C355        C  0.44932120  0.23987484  0.77383725    -0.11000
C356        C  0.44081121  0.21496721  0.75870926     0.03700
C357        C  0.45591748  0.20730783  0.73381201    -0.10400
H358        H  0.50769014  0.25941420  0.73330339     0.09300
H359        H  0.43759636  0.24672143  0.79275111     0.06800
H360        H  0.44958548  0.18808949  0.72201394     0.06700
O361        O  0.00417791  0.41796285  0.01289575    -0.79500
O362        O  0.00358385  0.58249657  0.02439391    -0.81100
O363        O  0.05858389  0.49818132  0.04274137    -0.78100
O364        O  0.96605810  0.49800386  0.05950519    -0.76500
O365        O  0.92546092  0.50143573  0.03176700    -0.78300
O366        O  0.08778057  0.50342853  0.00321078    -0.79200
O367        O  0.01166786  0.54489816  0.05541933    -0.80600
O368        O  0.01231212  0.45089361  0.04892417    -0.80800
Eu369      Eu  0.00817599  0.49970738  0.02798162     2.39200
O370        O  0.97420612  0.53083897  0.00697385    -0.88300
O371        O  0.03217678  0.47358169  0.99200108    -0.92000
C372        C  0.00940053  0.42479479  0.03955001     1.02700
C373        C  0.00878867  0.57196273  0.04975511     1.02600
C374        C  0.08348987  0.50005562  0.03059006     1.02500
C375        C  0.93861485  0.49930687  0.05629413     1.00400
H376        H  0.04562693  0.54370736  0.00758299     0.30100
O377        O  0.03196892  0.53226293  0.99680040    -1.00700
H378        H  0.96424532  0.45891782  0.01557358     0.30100
O379        O  0.97425109  0.47177474  0.00253123    -1.03300
O380        O  0.98986586  0.59035230  0.93036464    -0.80500
O381        O  0.99299982  0.42315519  0.91848891    -0.80000
O382        O  0.07873464  0.55459949  0.95784038    -0.78500
O383        O  0.91742021  0.55096060  0.98652079    -0.81800
O384        O  0.91649408  0.45582083  0.97881197    -0.79700
O385        O  0.08098072  0.45899809  0.95565102    -0.78300
O386        O  0.02974556  0.51366246  0.88064704    -0.79800
O387        O  0.93862237  0.51204700  0.89814226    -0.81800
O388        O  0.06954266  0.51256830  0.90974554    -0.78500
O389        O  0.91001465  0.50775594  0.93838341    -0.81200
O390        O  0.04366029  0.58756562  0.96817756    -0.76900
O391        O  0.04707008  0.42339004  0.96089253    -0.77000
O392        O  0.95056531  0.42151433  0.96940085    -0.76600
O393        O  0.95094120  0.58686704  0.98182822    -0.80100
O394        O  0.98489928  0.55758868  0.89360976    -0.79500
O395        O  0.98662440  0.46056775  0.88678792    -0.77800
Eu396      Eu  0.99764482  0.56275203  0.97513094     2.39800
Eu397      Eu  0.99866258  0.44493231  0.96681296     2.39600
Eu398      Eu  0.05617515  0.50585874  0.96067087     2.38400
Eu399      Eu  0.94079413  0.50314520  0.98082473     2.39900
Eu400      Eu  0.98879543  0.50761115  0.91297320     2.39800
O401        O  0.96500664  0.47611195  0.94501592    -0.92300
O402        O  0.02169630  0.53589930  0.93927076    -0.91200
C403        C  0.98576543  0.58371259  0.90354549     1.02900
C404        C  0.98871872  0.43334146  0.89282211     1.01600
C405        C  0.06968229  0.58073869  0.96163719     1.01000
C406        C  0.92489882  0.57785751  0.98556543     1.03000
C407        C  0.92428221  0.42956013  0.97379029     1.01900
C408        C  0.07327657  0.43220891  0.95740619     1.00800
C409        C  0.05696760  0.51562509  0.88502857     1.00900
C410        C  0.91410985  0.51208593  0.91118547     1.03500
H411        H  0.03305880  0.46625227  0.92032328     0.30800
O412        O  0.02287420  0.47702958  0.93496654    -1.04400
H413        H  0.95128118  0.54715760  0.93992157     0.32900
O414        O  0.96490805  0.53437564  0.94896322    -1.07000
C415        C  0.78217730  0.49224646  0.27211796     0.03700
C416        C  0.79915249  0.50266544  0.24912043    -0.12400
C417        C  0.78732870  0.50766140  0.22183666     0.01200
C418        C  0.75825943  0.50267025  0.21725520    -0.11000
C419        C  0.74102453  0.48998193  0.23867814     0.03700
C420        C  0.75294831  0.48515121  0.26656307    -0.10400
H421        H  0.82194191  0.50638487  0.25219330     0.09300
H422        H  0.74932619  0.50726137  0.19607719     0.06800
H423        H  0.73981536  0.47582871  0.28352827     0.06700
C424        C  0.26640036  0.47799230  0.22596883     0.03700
C425        C  0.24452929  0.47919340  0.20507399    -0.12400
C426        C  0.21563831  0.48111176  0.21308031     0.01200
C427        C  0.20857051  0.48134671  0.24245758    -0.11000
C428        C  0.23009938  0.48152549  0.26390348     0.03700
C429        C  0.25914598  0.47963991  0.25549444    -0.10400
H430        H  0.25023063  0.47832107  0.18240621     0.09300
H431        H  0.18608033  0.48142826  0.24854830     0.06800
H432        H  0.27591191  0.47931438  0.27175667     0.06700
C433        C  0.26666466  0.49817774  0.78505695     0.03700
C434        C  0.25699042  0.48320113  0.76032006    -0.12400
C435        C  0.23368508  0.49396891  0.74421892     0.01200
C436        C  0.22081471  0.52002146  0.75241029    -0.11000
C437        C  0.23000272  0.53498888  0.77708452     0.03700
C438        C  0.25372363  0.52457773  0.79232000    -0.10400
H439        H  0.26650822  0.46271805  0.75452182     0.09300
H440        H  0.20261884  0.52745664  0.74003295     0.06800
H441        H  0.26119913  0.53659455  0.81096904     0.06700
C442        C  0.77336540  0.47761411  0.73081098     0.03700
C443        C  0.78585040  0.50313711  0.74104596    -0.12400
C444        C  0.77700929  0.51577495  0.76687235     0.01200
C445        C  0.75379829  0.50352908  0.78196920    -0.11000
C446        C  0.73961264  0.47875599  0.77149085     0.03700
C447        C  0.74972958  0.46557792  0.74580215    -0.10400
H448        H  0.80397552  0.51240003  0.72949435     0.09300
H449        H  0.74769893  0.51193059  0.80287920     0.06800
H450        H  0.73987712  0.44585351  0.73805803     0.06700
C451        C  0.23699353  0.28339960  0.99240535     0.03700
C452        C  0.24666338  0.25783549  0.97877491    -0.12400
C453        C  0.26798918  0.24056815  0.99193950     0.01200
C454        C  0.27983649  0.24954730  0.01838715    -0.11000
C455        C  0.27169803  0.27542006  0.03135492     0.03700
C456        C  0.24906507  0.29125810  0.01925984    -0.10400
H457        H  0.23809988  0.25174894  0.95784297     0.09300
H458        H  0.29778290  0.23778940  0.02749496     0.06800
H459        H  0.24134957  0.31015275  0.03045983     0.06700
O460        O  0.50588597  0.44034431  0.09442827    -0.79500
O461        O  0.50041190  0.42379865  0.92972457    -0.81100
O462        O  0.45113693  0.40468614  0.02301683    -0.78100
O463        O  0.54528466  0.39368412  0.01921517    -0.76500
O464        O  0.58341396  0.42484298  0.01488276    -0.78300
O465        O  0.42048194  0.44296924  0.01842109    -0.79200
O466        O  0.49725579  0.39310986  0.96843180    -0.80600
O467        O  0.49944748  0.40203028  0.06383879    -0.80800
Eu468      Eu  0.50073868  0.42141838  0.01386935     2.39200
O469        O  0.53187429  0.44388958  0.98014753    -0.88300
O470        O  0.47677602  0.45735938  0.04017555    -0.92000
C471        C  0.50193508  0.41318885  0.08940534     1.02700
C472        C  0.49798075  0.39840842  0.94093011     1.02600
C473        C  0.42596220  0.41638331  0.02386182     1.02500
C474        C  0.57233310  0.39982686  0.01997902     1.00400
H475        H  0.45953935  0.43815784  0.97239725     0.30100
O476        O  0.47321388  0.45028937  0.98237215    -1.00700
H477        H  0.54489362  0.43947892  0.05195357     0.30100
O478        O  0.53398291  0.45096416  0.03854557    -1.03300
O479        O  0.50418404  0.51800670  0.91957028    -0.80500
O480        O  0.51405910  0.53539902  0.08503297    -0.80000
O481        O  0.42262467  0.48163652  0.96270632    -0.78500
O482        O  0.58738270  0.46706435  0.95586731    -0.81800
O483        O  0.58971182  0.47736267  0.05294910    -0.79700
O484        O  0.42764114  0.48910109  0.05837707    -0.78300
O485        O  0.46953695  0.56551393  0.99822347    -0.79800
O486        O  0.56209705  0.55545266  0.99927664    -0.81800
O487        O  0.43055197  0.53583062  0.00389151    -0.78500
O488        O  0.59355125  0.51768385  0.00111698    -0.81200
O489        O  0.45607988  0.47378006  0.92721103    -0.76900
O490        O  0.46401763  0.48947360  0.09181282    -0.77000
O491        O  0.55728936  0.48428238  0.08961634    -0.76600
O492        O  0.55022823  0.46827235  0.92334364    -0.80100
O493        O  0.51161811  0.55516895  0.95134283    -0.79500
O494        O  0.51644692  0.56540603  0.04578476    -0.77800
Eu495      Eu  0.50425251  0.47311099  0.94886029     2.39800
Eu496      Eu  0.50973935  0.48569679  0.06620373     2.39600
Eu497      Eu  0.44875362  0.48607500  0.00926068     2.38400
Eu498      Eu  0.56530527  0.47326431  0.00511269     2.39900
Eu499      Eu  0.51301916  0.53665190  0.00124267     2.39800
O500        O  0.54052432  0.50802928  0.03248446    -0.92300
O501        O  0.47978236  0.50814139  0.97596047    -0.91200
C502        C  0.50733419  0.54507346  0.92565173     1.02900
C503        C  0.51626374  0.56061145  0.07329461     1.01600
C504        C  0.43001615  0.47719845  0.93604752     1.01000
C505        C  0.57716917  0.46664149  0.92969601     1.03000
C506        C  0.58312798  0.48083904  0.07999806     1.01900
C507        C  0.43729797  0.48943250  0.08465492     1.00800
C508        C  0.44232363  0.56080758  0.99976147     1.00900
C509        C  0.58764479  0.54475247  0.99965863     1.03500
H510        H  0.47156898  0.52915752  0.04601409     0.30800
O511        O  0.48186508  0.51480745  0.03502403    -1.04400
H512        H  0.55018549  0.51196204  0.96005877     0.32900
O513        O  0.53776922  0.50214746  0.97372871    -1.07000
C514        C  0.73017926  0.77478433  0.97594914     0.03700
C515        C  0.71113351  0.75454869  0.98798311    -0.12400
C516        C  0.72010945  0.72688049  0.99496169     0.01200
C517        C  0.74900875  0.71955714  0.99193718    -0.11000
C518        C  0.76928513  0.73940503  0.98132119     0.03700
C519        C  0.75962427  0.76720276  0.97275308    -0.10400
H520        H  0.68871298  0.76005644  0.99113546     0.09300
H521        H  0.75566539  0.69791503  0.99745212     0.06800
H522        H  0.77468287  0.78257548  0.96366274     0.06700
C523        C  0.27160755  0.76369871  0.95895482     0.03700
C524        C  0.24254628  0.75759252  0.95192443    -0.12400
C525        C  0.23304805  0.72868407  0.94962236     0.01200
C526        C  0.25258427  0.70638978  0.95490399    -0.11000
C527        C  0.28118206  0.71194715  0.96144232     0.03700
C528        C  0.29075318  0.74049561  0.96312309    -0.10400
H529        H  0.22759561  0.77505665  0.94823235     0.09300
H530        H  0.24534719  0.68414668  0.95436024     0.06800
H531        H  0.31341618  0.74453650  0.96647576     0.06700
C532        C  0.78097908  0.26057620  0.99608882     0.03700
C533        C  0.76613772  0.23530234  0.98729412    -0.12400
C534        C  0.73779315  0.22981955  0.99740957     0.01200
C535        C  0.72468926  0.25055442  0.01532371    -0.11000
C536        C  0.73969258  0.27490908  0.02508494     0.03700
C537        C  0.76783468  0.27930686  0.01588680    -0.10400
H538        H  0.77606982  0.22067808  0.97202761     0.09300
H539        H  0.70201369  0.24888732  0.02003086     0.06800
H540        H  0.77908556  0.29862965  0.02280752     0.06700
C541        C  0.63694609  0.36000656  0.05216515     0.19300
C542        C  0.66560592  0.36804715  0.05734325    -0.18800
C543        C  0.68674537  0.34700355  0.06091589    -0.11100
C544        C  0.67930093  0.31762013  0.05964249     0.21500
C545        C  0.65026749  0.30980376  0.05778715    -0.20400
C546        C  0.62923158  0.33074878  0.05405611    -0.11300
C547        C  0.70086532  0.29457268  0.05605969    -0.15400
C548        C  0.72479255  0.29869912  0.04027495    -0.29300
C549        C  0.61610049  0.38243725  0.04350818    -0.03600
C550        C  0.59190915  0.37666885  0.02854689    -0.40100
H551        H  0.67190534  0.39055072  0.05700286     0.12700
H552        H  0.70890068  0.35372109  0.06344335     0.12300
H553        H  0.64399136  0.28729868  0.05726954     0.11700
H554        H  0.60716968  0.32373981  0.05182458     0.12000
H555        H  0.69422217  0.27275004  0.06140822     0.14700
H556        H  0.73175525  0.32043654  0.03501560     0.13500
H557        H  0.62156427  0.40473492  0.04836049     0.11200
H558        H  0.58562691  0.35476287  0.02335034     0.13200
C559        C  0.34131028  0.66035200  0.98639199     0.19300
C560        C  0.36955104  0.66362830  0.99639177    -0.18800
C561        C  0.38734819  0.63965715  0.99977338    -0.11100
C562        C  0.37716805  0.61174660  0.99321888     0.21500
C563        C  0.34862090  0.60840769  0.98417462    -0.20400
C564        C  0.33082067  0.63234475  0.98087465    -0.11300
C565        C  0.39524697  0.58557208  0.99641797    -0.15400
C566        C  0.42408416  0.58651078  0.99655859    -0.29300
C567        C  0.32329652  0.68645987  0.98253286    -0.03600
C568        C  0.30044024  0.68690670  0.96480207    -0.40100
H569        H  0.37794918  0.68485159  0.00143091     0.12700
H570        H  0.40881279  0.64320912  0.00798240     0.12300
H571        H  0.34003999  0.58715757  0.97958027     0.11700
H572        H  0.30879531  0.62857748  0.97445460     0.12000
H573        H  0.38446863  0.56479770  0.99780580     0.14700
H574        H  0.43520519  0.60686798  0.99353488     0.13500
H575        H  0.32923084  0.70581352  0.99436786     0.11200
H576        H  0.29461158  0.66772324  0.95272808     0.13200
C577        C  0.63255329  0.61453958  0.99952115     0.19300
C578        C  0.62693464  0.64297678  0.00801730    -0.18800
C579        C  0.64851369  0.66386238  0.00710951    -0.11100
C580        C  0.67631730  0.65662563  0.99759819     0.21500
C581        C  0.68186939  0.62823311  0.98894268    -0.20400
C582        C  0.66027210  0.60739434  0.98974719    -0.11300
C583        C  0.69963105  0.67809675  0.99418354    -0.15400
C584        C  0.69832475  0.70543533  0.00366003    -0.29300
C585        C  0.60864201  0.59343095  0.00042127    -0.03600
C586        C  0.61216459  0.56475517  0.99837214    -0.40100
H587        H  0.60566309  0.64913631  0.01524556     0.12700
H588        H  0.64284615  0.68555006  0.01327093     0.12300
H589        H  0.70295326  0.62220565  0.98106076     0.11700
H590        H  0.66545883  0.58605039  0.98208022     0.12000
H591        H  0.71816660  0.67135891  0.98161013     0.14700
H592        H  0.67981920  0.71324380  0.01547234     0.13500
H593        H  0.58714081  0.60195235  0.00366355     0.11200
H594        H  0.63337122  0.55535584  0.99659608     0.13200
C595        C  0.37743389  0.35792691  0.05578606     0.19300
C596        C  0.37613563  0.32826368  0.05067415    -0.18800
C597        C  0.35002676  0.31357901  0.05325251    -0.11100
C598        C  0.32489842  0.32838460  0.06154406     0.21500
C599        C  0.32695822  0.35754216  0.06924452    -0.20400
C600        C  0.35303537  0.37223249  0.06645565    -0.11300
C601        C  0.29603852  0.31609347  0.05578704    -0.15400
C602        C  0.29136566  0.28757224  0.05357687    -0.29300
C603        C  0.40342137  0.37405532  0.04712150    -0.03600
C604        C  0.40109465  0.39886283  0.03242564    -0.40100
H605        H  0.39476126  0.31694292  0.04244545     0.12700
H606        H  0.34925011  0.29132737  0.04630833     0.12300
H607        H  0.30795598  0.36940934  0.07559757     0.11700
H608        H  0.35378791  0.39507675  0.07119763     0.12000
H609        H  0.28024536  0.33120042  0.04767144     0.14700
H610        H  0.30715478  0.27303216  0.06281731     0.13500
H611        H  0.42440164  0.36466402  0.05117362     0.11200
H612        H  0.37992026  0.40755938  0.02777947     0.13200
C613        C  0.64287966  0.46438267  0.87734224     0.19300
C614        C  0.66714518  0.44705266  0.87210032    -0.18800
C615        C  0.68423708  0.45134113  0.84721380    -0.11100
C616        C  0.67762573  0.47347165  0.82743625     0.21500
C617        C  0.65347850  0.49066702  0.83281773    -0.20400
C618        C  0.63632274  0.48617472  0.85723756    -0.11300
C619        C  0.69749171  0.48262109  0.80379435    -0.15400
C620        C  0.71630334  0.46562016  0.78953104    -0.29300
C621        C  0.62521542  0.46085884  0.90431903    -0.03600
C622        C  0.59664697  0.46581305  0.90412484    -0.40100
H623        H  0.67300726  0.43038065  0.88738230     0.12700
H624        H  0.70325797  0.43830081  0.84421023     0.12300
H625        H  0.64827812  0.50831734  0.81840472     0.11700
H626        H  0.61848292  0.50063810  0.86088456     0.12000
H627        H  0.69723108  0.50544617  0.79844461     0.14700
H628        H  0.71559572  0.44238344  0.79222588     0.13500
H629        H  0.63570989  0.45436058  0.92425803     0.11200
H630        H  0.58640496  0.47006681  0.88342990     0.13200
C631        C  0.35662858  0.47879381  0.89595365     0.19300
C632        C  0.32908839  0.48797025  0.90399925    -0.18800
C633        C  0.30737219  0.49094563  0.88338311    -0.11100
C634        C  0.31243095  0.48468316  0.85406041     0.21500
C635        C  0.33982272  0.47483495  0.84589309    -0.20400
C636        C  0.36163851  0.47175742  0.86663561    -0.11300
C637        C  0.28896186  0.49089652  0.83306330    -0.15400
C638        C  0.28951867  0.48614784  0.80415812    -0.29300
C639        C  0.37925670  0.47740568  0.91885386    -0.03600
C640        C  0.40762279  0.47619737  0.91327347    -0.40100
H641        H  0.32446231  0.49347282  0.92630971     0.12700
H642        H  0.28657877  0.49875853  0.89038808     0.12300
H643        H  0.34476069  0.46993352  0.82357350     0.11700
H644        H  0.38225539  0.46388371  0.85942351     0.12000
H645        H  0.27001532  0.50107578  0.84219048     0.14700
H646        H  0.30662895  0.47375818  0.79429673     0.13500
H647        H  0.37229316  0.47894350  0.94126325     0.11200
H648        H  0.41521753  0.47528652  0.89112110     0.13200
C649        C  0.37198798  0.46918911  0.13169133     0.19300
C650        C  0.35274277  0.44595806  0.13037028    -0.18800
C651        C  0.33167442  0.44233303  0.15150946    -0.11100
C652        C  0.32910453  0.46192818  0.17450382     0.21500
C653        C  0.34891969  0.48483985  0.17648583    -0.20400
C654        C  0.37026391  0.48836750  0.15530409    -0.11300
C655        C  0.30315560  0.45943873  0.19306634    -0.15400
C656        C  0.29668389  0.47617837  0.21600736    -0.29300
C657        C  0.39224037  0.47333036  0.10713412    -0.03600
C658        C  0.41662224  0.48879048  0.10881355    -0.40100
H659        H  0.35358386  0.43084755  0.11252360     0.12700
H660        H  0.31656766  0.42465312  0.14922648     0.12300
H661        H  0.34734566  0.50075885  0.19349418     0.11700
H662        H  0.38441192  0.50683637  0.15686468     0.12000
H663        H  0.28682820  0.44431352  0.18564691     0.14700
H664        H  0.31261417  0.49009139  0.22597781     0.13500
H665        H  0.38765544  0.46178901  0.08715092     0.11200
H666        H  0.42326558  0.49824668  0.12922641     0.13200
C667        C  0.67751756  0.47105415  0.18801778     0.19300
C668        C  0.67602613  0.45598932  0.16163315    -0.18800
C669        C  0.65240018  0.45893190  0.14314471    -0.11100
C670        C  0.62947438  0.47727110  0.15034337     0.21500
C671        C  0.63018953  0.49129008  0.17738952    -0.20400
C672        C  0.65406388  0.48847666  0.19593272    -0.11300
C673        C  0.60459976  0.48149512  0.13013145    -0.15400
C674        C  0.60739657  0.47972234  0.10099156    -0.29300
C675        C  0.70544297  0.47080670  0.20406678    -0.03600
C676        C  0.71081508  0.48234797  0.23053146    -0.40100
H677        H  0.69366169  0.44236972  0.15484367     0.12700
H678        H  0.65223839  0.44680800  0.12313454     0.12300
H679        H  0.61267406  0.50523819  0.18375936     0.11700
H680        H  0.65449820  0.50078055  0.21580956     0.12000
H681        H  0.58372323  0.48638715  0.13943020     0.14700
H682        H  0.62860966  0.47648037  0.09179465     0.13500
H683        H  0.72375736  0.46276183  0.19187256     0.11200
H684        H  0.69342237  0.48875374  0.24474660     0.13200
C685        C  0.83608529  0.69059386  0.99261083     0.19300
C686        C  0.85528027  0.69239098  0.96911645    -0.18800
C687        C  0.87740229  0.67196383  0.96585657    -0.11100
C688        C  0.88044799  0.64897180  0.98552585     0.21500
C689        C  0.86135950  0.64734420  0.00903662    -0.20400
C690        C  0.83967305  0.66791242  0.01255968    -0.11300
C691        C  0.90419953  0.62757615  0.98175987    -0.15400
C692        C  0.90160167  0.59949696  0.98928533    -0.29300
C693        C  0.81119903  0.71055462  0.99711032    -0.03600
C694        C  0.79965785  0.72912881  0.97758034    -0.40100
H695        H  0.85340479  0.70947178  0.95332112     0.12700
H696        H  0.89195958  0.67388162  0.94765211     0.12300
H697        H  0.86341195  0.63043472  0.02504220     0.11700
H698        H  0.82531634  0.66581686  0.03092042     0.12000
H699        H  0.92388907  0.63490608  0.97141503     0.14700
H700        H  0.88113961  0.59166380  0.99747858     0.13500
H701        H  0.79964377  0.70759258  0.01736034     0.11200
H702        H  0.81073550  0.73415124  0.95754412     0.13200
C703        C  0.83660681  0.31568737  0.96799849     0.19300
C704        C  0.86457380  0.30803957  0.97668265    -0.18800
C705        C  0.88700523  0.32854983  0.97582218    -0.11100
C706        C  0.88185859  0.35714642  0.96696860     0.21500
C707        C  0.85425580  0.36420522  0.95699441    -0.20400
C708        C  0.83209653  0.34377620  0.95748583    -0.11300
C709        C  0.90554003  0.37908027  0.96821518    -0.15400
C710        C  0.90090952  0.40754460  0.97256497    -0.29300
C711        C  0.81052183  0.29720712  0.97234910    -0.03600
C712        C  0.80900820  0.27021702  0.98346351    -0.40100
H713        H  0.86902805  0.28671264  0.98495871     0.12700
H714        H  0.90822459  0.32236598  0.98312380     0.12300
H715        H  0.84958767  0.38557287  0.94891501     0.11700
H716        H  0.81090623  0.35035707  0.95042839     0.12000
H717        H  0.92750044  0.37134661  0.96677191     0.14700
H718        H  0.87908580  0.41521427  0.97558209     0.13500
H719        H  0.79012761  0.30807953  0.96883798     0.11200
H720        H  0.82805772  0.25718326  0.98662742     0.13200
C721        C  0.17279459  0.67641188  0.93012369     0.19300
C722        C  0.15413134  0.67642212  0.95413010    -0.18800
C723        C  0.13463808  0.65359159  0.95846091    -0.11100
C724        C  0.13344725  0.63020560  0.93892552     0.21500
C725        C  0.15182517  0.63058224  0.91488690    -0.20400
C726        C  0.17112969  0.65331071  0.91051682    -0.11300
C727        C  0.11434949  0.60454634  0.94330837    -0.15400
C728        C  0.08987991  0.60539914  0.95879801    -0.29300
C729        C  0.19738449  0.69689948  0.92700258    -0.03600
C730        C  0.20265660  0.72022862  0.94380265    -0.40100
H731        H  0.15534392  0.69324671  0.97028496     0.12700
H732        H  0.12143752  0.65384434  0.97773151     0.12300
H733        H  0.15155356  0.61299541  0.89954911     0.11700
H734        H  0.18556602  0.65231094  0.89213334     0.12000
H735        H  0.11978232  0.58472826  0.93203460     0.14700
H736        H  0.08300823  0.62567598  0.96818922     0.13500
H737        H  0.21463934  0.68973648  0.91283027     0.11200
H738        H  0.18585677  0.72981514  0.95688375     0.13200
C739        C  0.14708495  0.39274781  0.96294225     0.19300
C740        C  0.17409367  0.40144033  0.97339929    -0.18800
C741        C  0.19575131  0.38128129  0.97879270    -0.11100
C742        C  0.19127866  0.35171070  0.97372803     0.21500
C743        C  0.16462910  0.34294640  0.96221482    -0.20400
C744        C  0.14283944  0.36321986  0.95679156    -0.11300
C745        C  0.21430066  0.33118147  0.98298297    -0.15400
C746        C  0.21476146  0.30226673  0.97854343    -0.29300
C747        C  0.12410229  0.41518367  0.95981402    -0.03600
C748        C  0.09582119  0.40950154  0.95613163    -0.40100
H749        H  0.17826742  0.42392424  0.97821650     0.12700
H750        H  0.21596841  0.38885148  0.98765891     0.12300
H751        H  0.16013989  0.32046099  0.95803634     0.11700
H752        H  0.12271238  0.35545603  0.94809322     0.12000
H753        H  0.23203502  0.34080814  0.99484753     0.14700
H754        H  0.19891208  0.29215003  0.96464018     0.13500
H755        H  0.13059735  0.43751571  0.96279574     0.11200
H756        H  0.08839723  0.38741005  0.95445832     0.13200
C757        C  0.81609476  0.55811777  0.82411071     0.19300
C758        C  0.81261698  0.55218004  0.85363071    -0.18800
C759        C  0.83657403  0.54870745  0.87129718    -0.11100
C760        C  0.86432568  0.55125447  0.85957743     0.21500
C761        C  0.86776600  0.56100862  0.83112712    -0.20400
C762        C  0.84377015  0.56448925  0.81340451    -0.11300
C763        C  0.88981405  0.54200936  0.87587338    -0.15400
C764        C  0.88883316  0.51967226  0.89431138    -0.29300
C765        C  0.79167315  0.55138955  0.80476513    -0.03600
C766        C  0.79644533  0.53776781  0.77958042    -0.40100
H767        H  0.79150879  0.54766398  0.86248472     0.12700
H768        H  0.83335609  0.54261954  0.89368859     0.12300
H769        H  0.88905261  0.56395115  0.82203929     0.11700
H770        H  0.84711000  0.57036339  0.79098426     0.12000
H771        H  0.91015249  0.55285638  0.87162847     0.14700
H772        H  0.86878799  0.50856042  0.89896105     0.13500
H773        H  0.77039701  0.55117199  0.81433173     0.11200
H774        H  0.81786102  0.53849043  0.77028783     0.13200
C775        C  0.16109934  0.56541118  0.80145554     0.19300
C776        C  0.13562003  0.55207670  0.79212682    -0.18800
C777        C  0.11434109  0.54439999  0.81202461    -0.11100
C778        C  0.11825644  0.55017765  0.84165486     0.21500
C779        C  0.14273296  0.56551245  0.85052232    -0.20400
C780        C  0.16381718  0.57341333  0.83063960    -0.11300
C781        C  0.09827074  0.54014517  0.86444745    -0.15400
C782        C  0.07503743  0.52340611  0.86018402    -0.29300
C783        C  0.18602421  0.56517950  0.78159635    -0.03600
C784        C  0.21194252  0.55706665  0.79157840    -0.40100
H785        H  0.13304634  0.54571833  0.76970375     0.12700
H786        H  0.09560633  0.53312629  0.80406683     0.12300
H787        H  0.14615660  0.57032415  0.87317818     0.11700
H788        H  0.18282234  0.58443753  0.83844594     0.12000
H789        H  0.10315301  0.54696355  0.88644634     0.14700
H790        H  0.06810203  0.51697674  0.83875180     0.13500
H791        H  0.18112408  0.56326847  0.75876621     0.11200
H792        H  0.21671871  0.56030172  0.81434389     0.13200
C793        C  0.17342642  0.48995238  0.14138272     0.19300
C794        C  0.17680570  0.50658016  0.11618763    -0.18800
C795        C  0.15558618  0.50657242  0.09476851    -0.11100
C796        C  0.13065644  0.48968604  0.09815381     0.21500
C797        C  0.12761613  0.47262315  0.12299143    -0.20400
C798        C  0.14886937  0.47241837  0.14420534    -0.11300
C799        C  0.10649534  0.49049909  0.07738866    -0.15400
C800        C  0.10896071  0.49848504  0.04949986    -0.29300
C801        C  0.19620972  0.49085293  0.16381458    -0.03600
C802        C  0.19231177  0.48166126  0.19124191    -0.40100
H803        H  0.19568404  0.52001224  0.11329443     0.12700
H804        H  0.15843053  0.52042471  0.07615117     0.12300
H805        H  0.10865834  0.45932895  0.12601080     0.11700
H806        H  0.14588073  0.45829083  0.16255549     0.12000
H807        H  0.08560998  0.48373797  0.08554783     0.14700
H808        H  0.12981295  0.50355475  0.04024920     0.13500
H809        H  0.21665986  0.50026966  0.15754130     0.11200
H810        H  0.17113167  0.47507096  0.19850639     0.13200
C811        C  0.87708163  0.50248317  0.11148636     0.19300
C812        C  0.85448846  0.52190197  0.11553208    -0.18800
C813        C  0.83932513  0.52242732  0.14159522    -0.11100
C814        C  0.84610375  0.50290828  0.16392403     0.21500
C815        C  0.86840323  0.48308898  0.15954706    -0.20400
C816        C  0.88380273  0.48286811  0.13364061    -0.11300
C817        C  0.83024802  0.50173046  0.19174653    -0.15400
C818        C  0.80524981  0.51529011  0.19667521    -0.29300
C819        C  0.89330810  0.50316096  0.08397773    -0.03600
C820        C  0.92161127  0.49786385  0.08308942    -0.40100
H821        H  0.84896926  0.53714845  0.09868368     0.12700
H822        H  0.82265030  0.53837127  0.14393999     0.12300
H823        H  0.87384689  0.46757198  0.17618102     0.11700
H824        H  0.90066640  0.46709004  0.13085499     0.12000
H825        H  0.83819258  0.48681752  0.20801164     0.14700
H826        H  0.79539019  0.52850887  0.18014718     0.13500
H827        H  0.88215444  0.50990847  0.06447064     0.11200
H828        H  0.93313342  0.49323872  0.10299458     0.13200
C829        C  0.48684277  0.30496478  0.83189232     0.19300
C830        C  0.47411025  0.30398149  0.85944213    -0.18800
C831        C  0.47771174  0.32656084  0.87910785    -0.11100
C832        C  0.49456477  0.35070641  0.87186415     0.21500
C833        C  0.50737381  0.35176860  0.84427231    -0.20400
C834        C  0.50367356  0.32909803  0.82445815    -0.11300
C835        C  0.49804124  0.37557635  0.89205488    -0.15400
C836        C  0.49552251  0.37333405  0.92111797    -0.29300
C837        C  0.48164503  0.28018218  0.81211143    -0.03600
C838        C  0.48364108  0.28081934  0.78293956    -0.40100
H839        H  0.46081191  0.28578451  0.86565475     0.12700
H840        H  0.46668032  0.32522526  0.89967586     0.12300
H841        H  0.52041526  0.37015063  0.83809405     0.11700
H842        H  0.51420563  0.33045572  0.80362498     0.12000
H843        H  0.50334575  0.39637194  0.88260367     0.14700
H844        H  0.49190903  0.35240500  0.93096842     0.13500
H845        H  0.47409882  0.26046257  0.82232903     0.11200
H846        H  0.49203490  0.29967736  0.77188762     0.13200
C847        C  0.48118810  0.63189970  0.81505634     0.19300
C848        C  0.47246989  0.63339549  0.84415562    -0.18800
C849        C  0.47774614  0.61074063  0.86329027    -0.11100
C850        C  0.49178874  0.58565169  0.85389022     0.21500
C851        C  0.49927787  0.58337717  0.82446088    -0.20400
C852        C  0.49431376  0.60639240  0.80522050    -0.11300
C853        C  0.49792729  0.56167758  0.87460537    -0.15400
C854        C  0.50496251  0.56706751  0.90243419    -0.29300
C855        C  0.47768472  0.65842333  0.79709576    -0.03600
C856        C  0.49092222  0.66428705  0.77162193    -0.40100
H857        H  0.46213301  0.65259953  0.85244345     0.12700
H858        H  0.47067018  0.61290485  0.88551164     0.12300
H859        H  0.50962317  0.56405640  0.81651745     0.11700
H860        H  0.50098890  0.60418303  0.78291576     0.12000
H861        H  0.49641686  0.53958368  0.86696999     0.14700
H862        H  0.50789218  0.58932217  0.90917312     0.13500
H863        H  0.46585928  0.67586497  0.80732012     0.11200
H864        H  0.50189084  0.64758363  0.75954348     0.13200
C865        C  0.51856712  0.61275084  0.13875956     0.19300
C866        C  0.50151221  0.61601369  0.16363638    -0.18800
C867        C  0.50243098  0.64162110  0.17983905    -0.11100
C868        C  0.52094976  0.66432586  0.17173885     0.21500
C869        C  0.53859725  0.66056263  0.14732020    -0.20400
C870        C  0.53750551  0.63514992  0.13107557    -0.11300
C871        C  0.52129533  0.69301004  0.18645033    -0.15400
C872        C  0.50889526  0.69924085  0.21220496    -0.29300
C873        C  0.51624996  0.58596971  0.12106730    -0.03600
C874        C  0.51892848  0.58638776  0.09202178    -0.40100
H875        H  0.48680194  0.59903037  0.17005016     0.12700
H876        H  0.48807610  0.64371514  0.19811131     0.12300
H877        H  0.55311508  0.67756688  0.14050807     0.11700
H878        H  0.55157259  0.63307493  0.11252308     0.12000
H879        H  0.53252836  0.71015179  0.17506831     0.14700
H880        H  0.49979243  0.68215020  0.22537192     0.13500
H881        H  0.51078163  0.56592648  0.13194891     0.11200
H882        H  0.52242238  0.60685046  0.08112868     0.13200
C883        C  0.48361638  0.30709916  0.18657531     0.19300
C884        C  0.50356310  0.32997347  0.18782875    -0.18800
C885        C  0.50549493  0.35005288  0.16500337    -0.11100
C886        C  0.48771434  0.34752739  0.14037044     0.21500
C887        C  0.46732170  0.32521209  0.13972031    -0.20400
C888        C  0.46506534  0.30558002  0.16258728    -0.11300
C889        C  0.49062343  0.36657503  0.11432164    -0.15400
C890        C  0.50035047  0.39399592  0.11526812    -0.29300
C891        C  0.48334016  0.28222643  0.20719186    -0.03600
C892        C  0.50027980  0.27844741  0.23074807    -0.40100
H893        H  0.51841914  0.33185104  0.20571875     0.12700
H894        H  0.52177572  0.36670935  0.16615276     0.12300
H895        H  0.45329583  0.32265832  0.12117569     0.11700
H896        H  0.44944306  0.28828867  0.16087550     0.12000
H897        H  0.48309459  0.35805432  0.09374743     0.14700
H898        H  0.50613820  0.40335962  0.13599679     0.13500
H899        H  0.46951527  0.26431526  0.20100005     0.11200
H900        H  0.51297767  0.29604524  0.23948286     0.13200
C901        C  0.67611166  0.17213181  0.99365062     0.19300
C902        C  0.67982358  0.15344951  0.96995678    -0.18800
C903        C  0.65866281  0.13278770  0.96320698    -0.11100
C904        C  0.63314621  0.13080403  0.97947350     0.21500
C905        C  0.62941738  0.14957993  0.00299212    -0.20400
C906        C  0.65063256  0.16984065  0.00998065    -0.11300
C907        C  0.61183255  0.10760152  0.97302507    -0.15400
C908        C  0.58329018  0.11022464  0.97790701    -0.29300
C909        C  0.69787485  0.19405272  0.00295995    -0.03600
C910        C  0.72054625  0.20419046  0.98737446    -0.40100
H911        H  0.69916141  0.15424474  0.95699724     0.12700
H912        H  0.66223466  0.11825227  0.94522302     0.12300
H913        H  0.61049989  0.14811547  0.01657343     0.11700
H914        H  0.64710891  0.18379447  0.02844397     0.12000
H915        H  0.62006290  0.08760248  0.96406460     0.14700
H916        H  0.57465374  0.13073252  0.98507609     0.13500
H917        H  0.69411214  0.20311443  0.02426701     0.11200
H918        H  0.72592769  0.19457220  0.96668811     0.13200
C919        C  0.36214793  0.87447911  0.97259645     0.19300
C920        C  0.33415203  0.87646225  0.96119005    -0.18800
C921        C  0.31508658  0.85289344  0.96253391    -0.11100
C922        C  0.32358490  0.82704643  0.97590523     0.21500
C923        C  0.35123677  0.82551107  0.98801581    -0.20400
C924        C  0.37027950  0.84877309  0.98636223    -0.11300
C925        C  0.30514900  0.80076768  0.97782968    -0.15400
C926        C  0.28287759  0.79394918  0.96025433    -0.29300
C927        C  0.38199623  0.89978689  0.97091014    -0.03600
C928        C  0.41096492  0.89747540  0.97137172    -0.40100
H929        H  0.32713158  0.89621485  0.95093332     0.12700
H930        H  0.29380249  0.85510325  0.95341419     0.12300
H931        H  0.35834774  0.80597397  0.99863909     0.11700
H932        H  0.39117402  0.84660919  0.99636204     0.12000
H933        H  0.31219395  0.78466960  0.99333007     0.14700
H934        H  0.27424793  0.80972951  0.94530112     0.13500
H935        H  0.37237737  0.92097555  0.96864161     0.11200
H936        H  0.42087263  0.87634168  0.97180881     0.13200
C937        C  0.62726911  0.87190786  0.95564923     0.19300
C938        C  0.62378195  0.84640237  0.93974887    -0.18800
C939        C  0.64564653  0.82583772  0.93847699    -0.11100
C940        C  0.67173492  0.82980479  0.95335684     0.21500
C941        C  0.67563454  0.85559282  0.96902842    -0.20400
C942        C  0.65365357  0.87648071  0.97008685    -0.11300
C943        C  0.69197588  0.80474541  0.95451838    -0.15400
C944        C  0.71803369  0.80352896  0.96767414    -0.29300
C945        C  0.60215079  0.89196240  0.95776803    -0.03600
C946        C  0.60406298  0.92035265  0.96378671    -0.40100
H947        H  0.60377895  0.84211412  0.92851963     0.12700
H948        H  0.64169256  0.80616295  0.92646566     0.12300
H949        H  0.69508802  0.85927894  0.98129535     0.11700
H950        H  0.65699182  0.89556910  0.98311636     0.12000
H951        H  0.68346263  0.78461634  0.94593946     0.14700
H952        H  0.72880014  0.82292971  0.97508418     0.13500
H953        H  0.58106042  0.88297967  0.95305290     0.11200
H954        H  0.62505426  0.93011862  0.96697105     0.13200
C955        C  0.36172065  0.13474866  0.97578579     0.19300
C956        C  0.33883772  0.12719947  0.99427903    -0.18800
C957        C  0.31515236  0.14538525  0.99757873    -0.11100
C958        C  0.31343728  0.17163179  0.98259208     0.21500
C959        C  0.33573044  0.17888944  0.96325862    -0.20400
C960        C  0.35967689  0.16066839  0.96004631    -0.11300
C961        C  0.29120485  0.19273276  0.99207646    -0.15400
C962        C  0.28175114  0.21567672  0.97678994    -0.29300
C963        C  0.38851357  0.11693024  0.97400856    -0.03600
C964        C  0.38892049  0.08846767  0.98010597    -0.40100
H965        H  0.33966908  0.10797534  0.00746962     0.12700
H966        H  0.29860481  0.13948583  0.01301130     0.12300
H967        H  0.33553819  0.19930530  0.95192575     0.11700
H968        H  0.37700199  0.16718612  0.94577781     0.12000
H969        H  0.28377100  0.19042708  0.01428213     0.14700
H970        H  0.28669274  0.21765269  0.95390951     0.13500
H971        H  0.40822442  0.12737642  0.96689705     0.11200
H972        H  0.36888550  0.07748816  0.98503883     0.13200
C973        C  0.40948171  0.16821486  0.81619489     0.19300
C974        C  0.41510133  0.17232392  0.84571603    -0.18800
C975        C  0.42432123  0.14942601  0.86284287    -0.11100
C976        C  0.42810460  0.12190046  0.85068432     0.21500
C977        C  0.41878363  0.11694136  0.82227201    -0.20400
C978        C  0.40949862  0.13989778  0.80506621    -0.11300
C979        C  0.44259611  0.09842976  0.86680034    -0.15400
C980        C  0.46280518  0.10384062  0.88690451    -0.29300
C981        C  0.40960188  0.19422680  0.79746087    -0.03600
C982        C  0.42035100  0.19318974  0.77047108    -0.40100
H983        H  0.41461794  0.19373452  0.85507564     0.12700
H984        H  0.42952309  0.15364402  0.88527262     0.12300
H985        H  0.42036628  0.09563364  0.81282525     0.11700
H986        H  0.40389524  0.13548659  0.78279354     0.12000
H987        H  0.43704585  0.07625280  0.86158649     0.14700
H988        H  0.46860635  0.12589563  0.89221497     0.13500
H989        H  0.40844784  0.21472790  0.80858751     0.11200
H990        H  0.42014449  0.17273909  0.75913710     0.13200
C991        C  0.51473490  0.81629488  0.81607627     0.19300
C992        C  0.51676627  0.84481893  0.80627005    -0.18800
C993        C  0.51455092  0.86778312  0.82562032    -0.11100
C994        C  0.51029691  0.86254900  0.85530332     0.21500
C995        C  0.50909793  0.83394318  0.86516834    -0.20400
C996        C  0.51135869  0.81101211  0.84583098    -0.11300
C997        C  0.50762164  0.88590254  0.87698806    -0.15400
C998        C  0.50489068  0.91417425  0.87081220    -0.29300
C999        C  0.51594865  0.79284114  0.79449361    -0.03600
C1000       C  0.50399191  0.76676768  0.79875974    -0.40100
H1001       H  0.51969683  0.84937322  0.78345117     0.12700
H1002       H  0.51636354  0.88936575  0.81706632     0.12300
H1003       H  0.50633827  0.82927015  0.88798506     0.11700
H1004       H  0.51074927  0.78933637  0.85440374     0.12000
H1005       H  0.50747614  0.87917195  0.89952644     0.14700
H1006       H  0.50404774  0.92183052  0.84868585     0.13500
H1007       H  0.52559343  0.79793827  0.77370438     0.11200
H1008       H  0.49454069  0.76124617  0.81950138     0.13200
C1009       C  0.51524556  0.83389146  0.14997476     0.19300
C1010       C  0.52867663  0.83188872  0.12278253    -0.18800
C1011       C  0.52812365  0.85502358  0.10336445    -0.11100
C1012       C  0.51404851  0.88077280  0.11076885     0.21500
C1013       C  0.50208019  0.88344214  0.13844205    -0.20400
C1014       C  0.50240425  0.86029017  0.15777540    -0.11300
C1015       C  0.51129195  0.90521089  0.09025376    -0.15400
C1016       C  0.51000596  0.90157265  0.06141719    -0.29300
C1017       C  0.51527183  0.80798172  0.16918956    -0.03600
C1018       C  0.50260595  0.80679049  0.19542970    -0.40100
H1019       H  0.53935814  0.81218631  0.11635006     0.12700
H1020       H  0.53872227  0.85266419  0.08264547     0.12300
H1021       H  0.49167537  0.90330280  0.14485749     0.11700
H1022       H  0.49227806  0.86349600  0.17851935     0.12000
H1023       H  0.50857973  0.92666189  0.09927953     0.14700
H1024       H  0.51108783  0.88004752  0.05225375     0.13500
H1025       H  0.52681924  0.78918021  0.16148718     0.11200
H1026       H  0.49190243  0.82551803  0.20419433     0.13200
C1027       C  0.48763061  0.14812151  0.17048242     0.19300
C1028       C  0.46888491  0.15102429  0.14687699    -0.18800
C1029       C  0.46889275  0.13082503  0.12456598    -0.11100
C1030       C  0.48783155  0.10734823  0.12543773     0.21500
C1031       C  0.50561474  0.10361234  0.14953593    -0.20400
C1032       C  0.50568665  0.12383166  0.17184633    -0.11300
C1033       C  0.48976544  0.08651643  0.10149942    -0.15400
C1034       C  0.48523999  0.09407906  0.07386935    -0.29300
C1035       C  0.48839511  0.17167189  0.19214772    -0.03600
C1036       C  0.50538422  0.17204751  0.21566622    -0.40100
H1037       H  0.45449815  0.16928137  0.14541643     0.12700
H1038       H  0.45412995  0.13367992  0.10670527     0.12300
H1039       H  0.52013887  0.08543651  0.15068601     0.11700
H1040       H  0.52040384  0.12038317  0.18953166     0.12000
H1041       H  0.49710053  0.06487860  0.10657354     0.14700
H1042       H  0.47983418  0.11615470  0.06831692     0.13500
H1043       H  0.47440061  0.18999536  0.18830239     0.11200
H1044       H  0.51825546  0.15358988  0.22161554     0.13200
C1045       C  0.35749312  0.98332433  0.09681406     0.19300
C1046       C  0.33355149  0.00145264  0.10019026    -0.18800
C1047       C  0.31548145  0.99891916  0.12447887    -0.11100
C1048       C  0.32073846  0.97767714  0.14559229     0.21500
C1049       C  0.34368190  0.95851139  0.14114037    -0.20400
C1050       C  0.36187959  0.96130819  0.11717980    -0.11300
C1051       C  0.30573841  0.97662363  0.17417185    -0.15400
C1052       C  0.28294551  0.99268047  0.18241997    -0.29300
C1053       C  0.37762986  0.98780022  0.07203907    -0.03600
C1054       C  0.40632310  0.98419847  0.07448174    -0.40100
H1055       H  0.32951372  0.01838569  0.08458825     0.12700
H1056       H  0.29824428  0.01427161  0.12707957     0.12300
H1057       H  0.34821195  0.94181337  0.15686921     0.11700
H1058       H  0.37954649  0.94637028  0.11476487     0.12000
H1059       H  0.31567037  0.96305795  0.19052737     0.14700
H1060       H  0.27068885  0.00500234  0.16679886     0.13500
H1061       H  0.36884901  0.99607941  0.05191775     0.11200
H1062       H  0.41532518  0.97809443  0.09528591     0.13200
C1063       C  0.67846337  0.01446819  0.80645601     0.19300
C1064       C  0.65046054  0.02449147  0.80156000    -0.18800
C1065       C  0.63052744  0.02614002  0.82407745    -0.11100
C1066       C  0.63794347  0.01736760  0.85221370     0.21500
C1067       C  0.66642431  0.00867521  0.85752692    -0.20400
C1068       C  0.68651335  0.00707350  0.83485595    -0.11300
C1069       C  0.61647380  0.01696037  0.87624092    -0.15400
C1070       C  0.58778477  0.01515508  0.87182843    -0.29300
C1071       C  0.69653477  0.00802744  0.78070207    -0.03600
C1072       C  0.72495744  0.00221554  0.78074158    -0.40100
H1073       H  0.64366074  0.03035611  0.77992615     0.12700
H1074       H  0.60929025  0.03413147  0.81915539     0.12300
H1075       H  0.67284897  0.00207659  0.87905956     0.11700
H1076       H  0.70773573  0.99876817  0.83940085     0.12000
H1077       H  0.62465114  0.01706838  0.89826985     0.14700
H1078       H  0.57934128  0.01350826  0.85001851     0.13500
H1079       H  0.68500614  0.00545762  0.76036580     0.11200
H1080       H  0.73815076  0.00628987  0.79966467     0.13200
C1081       C  0.30092780  0.99181252  0.82063743     0.19300
C1082       C  0.32550153  0.97427895  0.82069428    -0.18800
C1083       C  0.34753493  0.97861438  0.84073676    -0.11100
C1084       C  0.34545125  0.00045836  0.86170173     0.21500
C1085       C  0.32078725  0.01799302  0.86182503    -0.20400
C1086       C  0.29882557  0.01396903  0.84125165    -0.11300
C1087       C  0.36796978  0.00412417  0.88446193    -0.15400
C1088       C  0.39580983  0.99741345  0.87992823    -0.29300
C1089       C  0.27858037  0.98567675  0.79842581    -0.03600
C1090       C  0.26187167  0.00548200  0.78505716    -0.40100
H1091       H  0.32775086  0.95707420  0.80499278     0.12700
H1092       H  0.36575539  0.96419077  0.84024616     0.12300
H1093       H  0.31853808  0.03485033  0.87787321     0.11700
H1094       H  0.28008358  0.02770071  0.84189677     0.12000
H1095       H  0.36160344  0.01315455  0.90518975     0.14700
H1096       H  0.40273273  0.99077318  0.85850703     0.13500
H1097       H  0.27924014  0.96411175  0.78920633     0.11200
H1098       H  0.25975498  0.02711581  0.79370185     0.13200
C1099       C  0.52237866  0.12943422  0.39577621     0.19300
C1100       C  0.50518163  0.15423473  0.39499690    -0.18800
C1101       C  0.50833408  0.17452988  0.37265846    -0.11100
C1102       C  0.52928897  0.17058655  0.35101783     0.21500
C1103       C  0.54755919  0.14655571  0.35298651    -0.20400
C1104       C  0.54400897  0.12608520  0.37488405    -0.11300
C1105       C  0.53112093  0.18843949  0.32422032    -0.15400
C1106       C  0.51233415  0.20899784  0.31581866    -0.29300
C1107       C  0.51784177  0.10750969  0.41875967    -0.03600
C1108       C  0.51924926  0.07903305  0.41328442    -0.40100
H1109       H  0.48860531  0.15738160  0.41115246     0.12700
H1110       H  0.49390008  0.19271684  0.37213295     0.12300
H1111       H  0.56404285  0.14296617  0.33681721     0.11700
H1112       H  0.55814016  0.10758773  0.37541187     0.12000
H1113       H  0.54691597  0.18147550  0.30833423     0.14700
H1114       H  0.49683189  0.21809901  0.33072897     0.13500
H1115       H  0.51207966  0.11494897  0.44028552     0.11200
H1116       H  0.52290313  0.07169312  0.39124768     0.13200
C1117       C  0.51630342  0.80660892  0.33507223     0.19300
C1118       C  0.53362359  0.83093766  0.34008790    -0.18800
C1119       C  0.52992510  0.84787302  0.36467297    -0.11100
C1120       C  0.50862662  0.84106627  0.38510389     0.21500
C1121       C  0.49222736  0.81584602  0.38117065    -0.20400
C1122       C  0.49579959  0.79881390  0.35618622    -0.11300
C1123       C  0.50364521  0.86030885  0.41039614    -0.15400
C1124       C  0.50621769  0.88914397  0.40785455    -0.29300
C1125       C  0.51918150  0.79245206  0.30623695    -0.03600
C1126       C  0.50426600  0.76953251  0.29615151    -0.40100
H1127       H  0.54972114  0.83745272  0.32442146     0.12700
H1128       H  0.54372555  0.86649229  0.36753980     0.12300
H1129       H  0.47597877  0.80992242  0.39690271     0.11700
H1130       H  0.48202054  0.78024429  0.35318771     0.12000
H1131       H  0.49756354  0.85079265  0.43099842     0.14700
H1132       H  0.51034627  0.89840869  0.38664146     0.13500
H1133       H  0.53371896  0.80309364  0.29117129     0.11200
H1134       H  0.49093198  0.75655967  0.31037514     0.13200
C1135       C  0.51302650  0.12642852  0.62666678     0.19300
C1136       C  0.50051761  0.15369632  0.62259516    -0.18800
C1137       C  0.49878150  0.17338561  0.64559170    -0.11100
C1138       C  0.50986742  0.16616034  0.67296443     0.21500
C1139       C  0.52361098  0.13957219  0.67652407    -0.20400
C1140       C  0.52547262  0.12006536  0.65364029    -0.11300
C1141       C  0.50319397  0.18309888  0.69927893    -0.15400
C1142       C  0.49656900  0.21134445  0.69975760    -0.29300
C1143       C  0.51286647  0.10499501  0.60263539    -0.03600
C1144       C  0.51404876  0.07625106  0.60727241    -0.40100
H1145       H  0.49105944  0.15931319  0.60193819     0.12700
H1146       H  0.48741412  0.19343970  0.64232463     0.12300
H1147       H  0.53222521  0.13348049  0.69742499     0.11700
H1148       H  0.53644340  0.09989717  0.65735946     0.12000
H1149       H  0.50091456  0.17084655  0.71925080     0.14700
H1150       H  0.50035549  0.22503745  0.68109169     0.13500
H1151       H  0.51084565  0.11307480  0.58065155     0.11200
H1152       H  0.51414770  0.06793132  0.62920997     0.13200
C1153       C  0.50837580  0.78534714  0.66099711     0.19300
C1154       C  0.53037456  0.80568920  0.65623949    -0.18800
C1155       C  0.52704303  0.82808630  0.63628289    -0.11100
C1156       C  0.50159182  0.83071920  0.62022363     0.21500
C1157       C  0.47988447  0.80983376  0.62405488    -0.20400
C1158       C  0.48303849  0.78752401  0.64448816    -0.11300
C1159       C  0.49801808  0.85435758  0.59856887    -0.15400
C1160       C  0.50816078  0.88136918  0.60289685    -0.29300
C1161       C  0.51200334  0.76500738  0.68580402    -0.03600
C1162       C  0.49403531  0.74345061  0.69405632    -0.40100
H1163       H  0.55013145  0.80468887  0.66859774     0.12700
H1164       H  0.54452731  0.84326322  0.63331827     0.12300
H1165       H  0.46014240  0.81123683  0.61173272     0.11700
H1166       H  0.46540865  0.77262581  0.64776434     0.12000
H1167       H  0.48625264  0.84952104  0.57884307     0.14700
H1168       H  0.51789134  0.88679263  0.62357282     0.13500
H1169       H  0.52990468  0.76991092  0.70014712     0.11200
H1170       H  0.47691087  0.73591864  0.68001971     0.13200
C1171       C  0.34274833  0.99445096  0.32966739     0.19300
C1172       C  0.33951673  0.98213921  0.35721638    -0.18800
C1173       C  0.36254031  0.98133160  0.37647682    -0.11100
C1174       C  0.38931707  0.99315702  0.36867731     0.21500
C1175       C  0.39285896  0.00485391  0.34100478    -0.20400
C1176       C  0.36982846  0.00571375  0.32170281    -0.11300
C1177       C  0.41400059  0.99292942  0.38879073    -0.15400
C1178       C  0.41032771  0.99408018  0.41756049    -0.29300
C1179       C  0.31753491  0.99417514  0.30995866    -0.03600
C1180       C  0.31758723  0.00534954  0.28309177    -0.40100
H1181       H  0.31912698  0.97290107  0.36383859     0.12700
H1182       H  0.35938152  0.97101900  0.39725009     0.12300
H1183       H  0.41343060  0.01369968  0.33442703     0.11700
H1184       H  0.37377631  0.01514963  0.30074485     0.12000
H1185       H  0.43555131  0.99228574  0.37972420     0.14700
H1186       H  0.38889717  0.99645091  0.42655689     0.13500
H1187       H  0.29832227  0.98318641  0.31761674     0.11200
H1188       H  0.33667468  0.01533004  0.27419938     0.13200
C1189       C  0.63561599  0.93268364  0.63144645     0.19300
C1190       C  0.63341216  0.92021282  0.65894725    -0.18800
C1191       C  0.65815257  0.91206816  0.67394546    -0.11100
C1192       C  0.68552559  0.91668978  0.66164631     0.21500
C1193       C  0.68733068  0.92571643  0.63274086    -0.20400
C1194       C  0.66262785  0.93382314  0.61778433    -0.11300
C1195       C  0.71207509  0.91845069  0.67935801    -0.15400
C1196       C  0.71084356  0.92751644  0.70700917    -0.29300
C1197       C  0.60948152  0.94376772  0.61710205    -0.03600
C1198       C  0.61039837  0.96627128  0.59889906    -0.40100
H1199       H  0.61265678  0.91805586  0.66937586     0.12700
H1200       H  0.65574579  0.90359662  0.69561957     0.12300
H1201       H  0.70805458  0.92873170  0.62243923     0.11700
H1202       H  0.66483516  0.94172863  0.59584926     0.12000
H1203       H  0.73210529  0.91991477  0.66749645     0.14700
H1204       H  0.69062106  0.92553739  0.71850261     0.13500
H1205       H  0.58924617  0.93257202  0.62079919     0.11200
H1206       H  0.63055418  0.97746022  0.59488759     0.13200
C1207       C  0.33066225  0.95351551  0.67187513     0.19300
C1208       C  0.35833205  0.96224722  0.67996821    -0.18800
C1209       C  0.37970942  0.96564623  0.65908079    -0.11100
C1210       C  0.37361525  0.96021095  0.62966478     0.21500
C1211       C  0.34648678  0.94932433  0.62211724    -0.20400
C1212       C  0.32513716  0.94604627  0.64300107    -0.11300
C1213       C  0.39436111  0.96592145  0.60600245    -0.15400
C1214       C  0.41981534  0.97900928  0.60975049    -0.29300
C1215       C  0.30741012  0.95531290  0.69336018    -0.03600
C1216       C  0.28196453  0.96707817  0.68632750    -0.40100
H1217       H  0.36300499  0.96784945  0.70225695     0.12700
H1218       H  0.40050826  0.97305995  0.66629989     0.12300
H1219       H  0.34145268  0.94424388  0.59979638     0.11700
H1220       H  0.30409773  0.93846232  0.63643793     0.12000
H1221       H  0.38845012  0.95884853  0.58435097     0.14700
H1222       H  0.42715095  0.98577771  0.63091042     0.13500
H1223       H  0.31294032  0.95073740  0.71566017     0.11200
H1224       H  0.27734468  0.97158065  0.66372070     0.13200
C1225       C  0.64358840  0.02149601  0.08775665     0.19300
C1226       C  0.66971663  0.00639887  0.08825375    -0.18800
C1227       C  0.68820930  0.00832170  0.11223325    -0.11100
C1228       C  0.68114982  0.02598437  0.13597321     0.21500
C1229       C  0.65574009  0.04229071  0.13459648    -0.20400
C1230       C  0.63713822  0.04000685  0.11093042    -0.11300
C1231       C  0.69738423  0.02604775  0.16385617    -0.15400
C1232       C  0.72013883  0.00924272  0.17064945    -0.29300
C1233       C  0.62310768  0.01739140  0.06321921    -0.03600
C1234       C  0.59446914  0.01606689  0.06757539    -0.40100
H1235       H  0.67528363  0.99218245  0.07053970     0.12700
H1236       H  0.70745954  0.99536383  0.11230222     0.12300
H1237       H  0.64969562  0.05620598  0.15241468     0.11700
H1238       H  0.61757214  0.05258181  0.11089998     0.12000
H1239       H  0.68793148  0.03865528  0.18126539     0.14700
H1240       H  0.73177030  0.99736125  0.15422064     0.13500
H1241       H  0.63174507  0.01377548  0.04167975     0.11200
H1242       H  0.58632565  0.01765614  0.08956885     0.13200
C1243       C  0.66155589  0.97533542  0.31646792     0.19300
C1244       C  0.66200901  0.95441013  0.33838291    -0.18800
C1245       C  0.64041994  0.95360387  0.35936747    -0.11100
C1246       C  0.61806019  0.97385274  0.35875925     0.21500
C1247       C  0.61729716  0.99447200  0.33665775    -0.20400
C1248       C  0.63904804  0.99551777  0.31588248    -0.11300
C1249       C  0.59563894  0.97443874  0.38131193    -0.15400
C1250       C  0.60204002  0.97097227  0.40941973    -0.29300
C1251       C  0.68587615  0.97671249  0.29587009    -0.03600
C1252       C  0.68395709  0.98890665  0.26952060    -0.40100
H1253       H  0.67923057  0.93878021  0.33936942     0.12700
H1254       H  0.64120354  0.93721426  0.37603508     0.12300
H1255       H  0.60034053  0.01041015  0.33606631     0.11700
H1256       H  0.63854158  0.01264119  0.30000690     0.12000
H1257       H  0.57398958  0.98039516  0.37490396     0.14700
H1258       H  0.62411485  0.96686753  0.41586403     0.13500
H1259       H  0.70584234  0.96685017  0.30272404     0.11200
H1260       H  0.66316498  0.99596621  0.26162406     0.13200
C1261       C  0.37916550  0.84661435  0.51263011     0.19300
C1262       C  0.37629137  0.82081738  0.49690544    -0.18800
C1263       C  0.35240432  0.80270438  0.50112544    -0.11100
C1264       C  0.33120964  0.80987224  0.52165067     0.21500
C1265       C  0.33482974  0.83504361  0.53815023    -0.20400
C1266       C  0.35843894  0.85318303  0.53374031    -0.11300
C1267       C  0.30380129  0.79358136  0.52502418    -0.15400
C1268       C  0.29819518  0.76707568  0.51430205    -0.29300
C1269       C  0.40440193  0.86588545  0.50764271    -0.03600
C1270       C  0.40286709  0.89478644  0.51059603    -0.40100
H1271       H  0.39216958  0.81507160  0.48077171     0.20500
H1272       H  0.35028492  0.78372894  0.48770141     0.12300
H1273       H  0.31900863  0.84101212  0.55427685     0.11700
H1274       H  0.36050008  0.87228137  0.54704432     0.12000
H1275       H  0.28693220  0.80447864  0.53701758     0.14700
H1276       H  0.31515543  0.75436010  0.50455798     0.13500
H1277       H  0.42459881  0.85605114  0.50129180     0.11200
H1278       H  0.38218213  0.90467678  0.51498806     0.13200
C1279       C  0.64055655  0.84812464  0.51255572     0.19300
C1280       C  0.66631403  0.84730104  0.52854361    -0.18800
C1281       C  0.68413470  0.82283246  0.52779393    -0.11100
C1282       C  0.67661050  0.79882410  0.51071419     0.21500
C1283       C  0.65045261  0.79931846  0.49570219    -0.20400
C1284       C  0.63274710  0.82355567  0.49643641    -0.11300
C1285       C  0.69783541  0.77631856  0.50247567    -0.15400
C1286       C  0.71983527  0.76688403  0.51892855    -0.29300
C1287       C  0.62286689  0.87505728  0.51196932    -0.03600
C1288       C  0.59457051  0.87486229  0.50555273    -0.40100
H1289       H  0.67301886  0.86590387  0.54103628     0.12700
H1290       H  0.70455103  0.82347827  0.53901077     0.12300
H1291       H  0.64439970  0.78136936  0.48197087     0.11700
H1292       H  0.61371002  0.82329683  0.48305171     0.12000
H1293       H  0.69697783  0.76918662  0.48005772     0.14700
H1294       H  0.72077667  0.77191677  0.54185701     0.13500
H1295       H  0.63312576  0.89529325  0.51787611     0.11200
H1296       H  0.58377765  0.85448226  0.50165636     0.13200
C1297       C  0.63857656  0.11800238  0.50790358     0.19300
C1298       C  0.63369939  0.14740622  0.50205343    -0.18800
C1299       C  0.65668237  0.16705653  0.49959688    -0.11100
C1300       C  0.68520276  0.15772645  0.50319442     0.21500
C1301       C  0.68998806  0.12844233  0.50928083    -0.20400
C1302       C  0.66715526  0.10889929  0.51171738    -0.11300
C1303       C  0.71091877  0.17659747  0.49859480    -0.15400
C1304       C  0.71112753  0.20544858  0.49395689    -0.29300
C1305       C  0.61342058  0.09773693  0.51002292    -0.03600
C1306       C  0.61550377  0.06863939  0.50931078    -0.40100
H1307       H  0.61198628  0.15516618  0.49896269     0.12700
H1308       H  0.65199040  0.18925782  0.49435976     0.12300
H1309       H  0.71168537  0.12047021  0.51198236     0.11700
H1310       H  0.67226814  0.08680176  0.51684989     0.12000
H1311       H  0.73143467  0.16547527  0.49790050     0.14700
H1312       H  0.69181112  0.21814433  0.49682955     0.13500
H1313       H  0.59216235  0.10728244  0.51124227     0.11200
H1314       H  0.63633267  0.05850689  0.50716621     0.13200
C1315       C  0.40557969  0.13500327  0.49995706     0.19300
C1316       C  0.40506536  0.16121254  0.51519962    -0.18800
C1317       C  0.38281742  0.18115088  0.51061990    -0.11100
C1318       C  0.36114053  0.17535670  0.49012053     0.21500
C1319       C  0.36278367  0.14980792  0.47388342    -0.20400
C1320       C  0.38454559  0.12982981  0.47881888    -0.11300
C1321       C  0.33515196  0.19354063  0.48592055    -0.15400
C1322       C  0.32628654  0.21529946  0.50313557    -0.29300
C1323       C  0.42805403  0.11308989  0.50594905    -0.03600
C1324       C  0.42148655  0.08479533  0.50701645    -0.40100
H1325       H  0.42134532  0.16580561  0.53131463     0.12700
H1326       H  0.38253358  0.20067800  0.52337662     0.12300
H1327       H  0.34658155  0.14478082  0.45779912     0.11700
H1328       H  0.38484907  0.11021372  0.46611235     0.12000
H1329       H  0.32048974  0.18648812  0.46898323     0.14700
H1330       H  0.34009852  0.22437635  0.51970670     0.13500
H1331       H  0.44996925  0.12029039  0.50972573     0.11200
H1332       H  0.39913184  0.07822494  0.50492820     0.13200
C1333       C  0.82185555  0.99750086  0.65029220     0.19300
C1334       C  0.81634633  0.99946414  0.62048337    -0.18800
C1335       C  0.83873769  0.00199999  0.60047650    -0.11100
C1336       C  0.86755117  0.00236918  0.60968405     0.21500
C1337       C  0.87310779  0.00124130  0.63966683    -0.20400
C1338       C  0.85055867  0.99871020  0.65979619    -0.11300
C1339       C  0.89219752  0.00415142  0.58882675    -0.15400
C1340       C  0.89003580  0.99916857  0.55997403    -0.29300
C1341       C  0.79706015  0.99148006  0.66983477    -0.03600
C1342       C  0.79717639  0.99272396  0.69907349    -0.40100
H1343       H  0.79446772  0.99863862  0.61249287     0.12700
H1344       H  0.83310246  0.00372435  0.57787879     0.12300
H1345       H  0.89503249  0.00169541  0.64753320     0.11700
H1346       H  0.85577935  0.99683657  0.68252727     0.12000
H1347       H  0.91319719  0.00919525  0.59782059     0.14700
H1348       H  0.86958541  0.99317656  0.55051301     0.13500
H1349       H  0.77725858  0.98492633  0.65918620     0.11200
H1350       H  0.81540469  0.00171849  0.71062240     0.13200
C1351       C  0.15193460  0.00690545  0.66356141     0.19300
C1352       C  0.12765623  0.98991188  0.65765082    -0.18800
C1353       C  0.11119641  0.99473579  0.63281846    -0.11100
C1354       C  0.11915076  0.01624539  0.61284647     0.21500
C1355       C  0.14310138  0.03366341  0.61897788    -0.20400
C1356       C  0.15916716  0.02931813  0.64433140    -0.11300
C1357       C  0.10384801  0.01909582  0.58470929    -0.15400
C1358       C  0.07522092  0.01611928  0.58320643    -0.29300
C1359       C  0.17245494  0.99688161  0.68597551    -0.03600
C1360       C  0.18884025  0.01423844  0.70267453    -0.40100
H1361       H  0.12209111  0.97206866  0.67172956     0.12700
H1362       H  0.09318979  0.98053673  0.62846231     0.12300
H1363       H  0.14973946  0.05019661  0.60380698     0.11700
H1364       H  0.17830878  0.04217136  0.64787449     0.12000
H1365       H  0.11620764  0.02335890  0.56521443     0.14700
H1366       H  0.06317723  0.01381374  0.60326827     0.13500
H1367       H  0.17607318  0.97375418  0.68692696     0.11200
H1368       H  0.18457122  0.03720831  0.70373743     0.13200
C1369       C  0.12825981  0.98941020  0.34172383     0.19300
C1370       C  0.12758556  0.99747869  0.31240018    -0.18800
C1371       C  0.15250742  0.99602802  0.29532887    -0.11100
C1372       C  0.17846427  0.98611236  0.30734765     0.21500
C1373       C  0.17871136  0.97718863  0.33636230    -0.20400
C1374       C  0.15398913  0.97860143  0.35326931    -0.11300
C1375       C  0.20609143  0.98484138  0.29124967    -0.15400
C1376       C  0.21161855  0.99712670  0.26533760    -0.29300
C1377       C  0.10197863  0.99206028  0.35985920    -0.03600
C1378       C  0.10330006  0.99567005  0.38880914    -0.40100
H1379       H  0.10787424  0.00536991  0.30282747     0.12700
H1380       H  0.15123531  0.00265537  0.27294507     0.12300
H1381       H  0.19827841  0.96921488  0.34618307     0.11700
H1382       H  0.15517815  0.97089886  0.37532711     0.12000
H1383       H  0.22362618  0.97399829  0.30228597     0.14700
H1384       H  0.19468115  0.00700327  0.25271780     0.13500
H1385       H  0.08122218  0.99186950  0.34907806     0.11200
H1386       H  0.12398406  0.99769396  0.39944393     0.13200
C1387       C  0.86316839  0.00463239  0.34376839     0.19300
C1388       C  0.84146096  0.02531194  0.34652080    -0.18800
C1389       C  0.82023748  0.02818861  0.32540533    -0.11100
C1390       C  0.81971716  0.01029179  0.30088298     0.21500
C1391       C  0.84145728  0.98938796  0.29786858    -0.20400
C1392       C  0.86312899  0.98670118  0.31909109    -0.11300
C1393       C  0.79419739  0.01267384  0.28139411    -0.15400
C1394       C  0.79023571  0.00005309  0.25525447    -0.29300
C1395       C  0.88398640  0.00162350  0.36818312    -0.03600
C1396       C  0.91148347  0.99284877  0.36553266    -0.40100
H1397       H  0.84075316  0.03926358  0.36532207     0.12700
H1398       H  0.80364509  0.04420082  0.32865931     0.12300
H1399       H  0.84129356  0.97459843  0.27976547     0.11700
H1400       H  0.87914393  0.97000374  0.31669603     0.12000
H1401       H  0.77644661  0.02523425  0.29000764     0.14700
H1402       H  0.80778399  0.98927161  0.24426831     0.13500
H1403       H  0.87668494  0.00893964  0.38929458     0.11200
H1404       H  0.91997429  0.98756857  0.34429147     0.13200
C1405       C  0.12095155  0.86712096  0.50521043     0.19300
C1406       C  0.11698744  0.83764478  0.49977594    -0.18800
C1407       C  0.13893923  0.81790317  0.50523143    -0.11100
C1408       C  0.16553989  0.82723464  0.51648539     0.21500
C1409       C  0.16912102  0.85664018  0.52285514    -0.20400
C1410       C  0.14714105  0.87638358  0.51735316    -0.11300
C1411       C  0.19043546  0.80760926  0.52106584    -0.15400
C1412       C  0.19065261  0.77937147  0.51414300    -0.29300
C1413       C  0.09690766  0.88719513  0.49877585    -0.03600
C1414       C  0.10033403  0.91575934  0.49486473    -0.40100
H1415       H  0.09687611  0.82985512  0.49086654     0.12700
H1416       H  0.13468963  0.79557855  0.50026657     0.12300
H1417       H  0.18916358  0.86447640  0.53189025     0.11700
H1418       H  0.15074970  0.89872866  0.52294852     0.12000
H1419       H  0.20973727  0.81719137  0.53015865     0.14700
H1420       H  0.17131533  0.76880825  0.50654907     0.13500
H1421       H  0.07555125  0.87788932  0.49661408     0.11200
H1422       H  0.12162102  0.92533186  0.49568315     0.13200
C1423       C  0.84182880  0.81589644  0.44786653     0.19300
C1424       C  0.87184228  0.81605091  0.44589882    -0.18800
C1425       C  0.88691934  0.84197890  0.44557170    -0.11100
C1426       C  0.87220360  0.86829510  0.44774907     0.21500
C1427       C  0.84213567  0.86838364  0.44740186    -0.20400
C1428       C  0.82695135  0.84233948  0.44771744    -0.11300
C1429       C  0.88806893  0.89549785  0.45216381    -0.15400
C1430       C  0.91178910  0.89603132  0.46864868    -0.29300
C1431       C  0.82752529  0.78835036  0.45515980    -0.03600
C1432       C  0.79926113  0.78361445  0.45178796    -0.40100
H1433       H  0.88373552  0.79601146  0.44594856     0.12700
H1434       H  0.91016525  0.84137342  0.44464410     0.12300
H1435       H  0.83047088  0.88851175  0.44877025     0.11700
H1436       H  0.80382865  0.84315438  0.44987724     0.12000
H1437       H  0.88005503  0.91512885  0.44223690     0.14700
H1438       H  0.91922267  0.87644553  0.47909654     0.13500
H1439       H  0.84039983  0.77290464  0.46708527     0.11200
H1440       H  0.78631667  0.79916667  0.44009652     0.13200
C1441       C  0.82209316  0.15801516  0.41397670     0.19300
C1442       C  0.81785242  0.12821163  0.41639605    -0.18800
C1443       C  0.84144258  0.10976115  0.41735903    -0.11100
C1444       C  0.86953056  0.12101034  0.41577153     0.21500
C1445       C  0.87349818  0.15016768  0.40913226    -0.20400
C1446       C  0.84990131  0.16862348  0.40814414    -0.11300
C1447       C  0.89476567  0.10344280  0.42355985    -0.15400
C1448       C  0.89318129  0.08378165  0.44477357    -0.29300
C1449       C  0.79831542  0.17738141  0.42248909    -0.03600
C1450       C  0.80371874  0.20121115  0.43819508    -0.40100
H1451       H  0.79654236  0.11946003  0.42007229     0.12700
H1452       H  0.83775203  0.08698483  0.42094996     0.12300
H1453       H  0.89494917  0.15905582  0.40691212     0.11700
H1454       H  0.85366580  0.19139890  0.40469733     0.12000
H1455       H  0.91524912  0.10789301  0.41311196     0.14700
H1456       H  0.87286125  0.07945106  0.45554088     0.13500
H1457       H  0.77646251  0.16967749  0.41970159     0.11200
H1458       H  0.82586394  0.20804774  0.44115026     0.13200
C1459       C  0.17473049  0.16691636  0.50429868     0.19300
C1460       C  0.14585087  0.17483869  0.50123267    -0.18800
C1461       C  0.12462516  0.15391415  0.49687816    -0.11100
C1462       C  0.13196243  0.12453989  0.49576429     0.21500
C1463       C  0.16072268  0.11660027  0.50028762    -0.20400
C1464       C  0.18194857  0.13753721  0.50444109    -0.11300
C1465       C  0.11041949  0.10139927  0.49077396    -0.15400
C1466       C  0.08402144  0.10554688  0.47943176    -0.29300
C1467       C  0.19669414  0.18983063  0.50737150    -0.03600
C1468       C  0.22359924  0.18710189  0.49706783    -0.40100
H1469       H  0.13976980  0.19735643  0.50165905     0.12700
H1470       H  0.10261763  0.16093428  0.49466124     0.12300
H1471       H  0.16686813  0.09409470  0.50027003     0.11700
H1472       H  0.20387823  0.13065766  0.50793655     0.12000
H1473       H  0.11697999  0.07963586  0.49636642     0.14700
H1474       H  0.07692570  0.12687027  0.47312923     0.13500
H1475       H  0.19001319  0.20991918  0.51732375     0.11200
H1476       H  0.23023550  0.16697880  0.48713707     0.13200
C1477       C  0.01156733  0.67372879  0.14935543     0.19300
C1478       C  0.03336524  0.65403001  0.14240054    -0.18800
C1479       C  0.03146578  0.63695164  0.11755871    -0.11100
C1480       C  0.00755394  0.63908474  0.09913028     0.21500
C1481       C  0.98637610  0.65969283  0.10527008    -0.20400
C1482       C  0.98818796  0.67672870  0.13028769    -0.11300
C1483       C  0.00418111  0.61977700  0.07367741    -0.15400
C1484       C  0.01225789  0.59193813  0.07444470    -0.29300
C1485       C  0.01212671  0.68738663  0.17845048    -0.03600
C1486       C  0.99649500  0.71047587  0.18660705    -0.40100
H1487       H  0.05158554  0.65124273  0.15671407     0.12700
H1488       H  0.04856368  0.62184642  0.11297456     0.12300
H1489       H  0.96779655  0.66175847  0.09131507     0.11700
H1490       H  0.97065230  0.69115918  0.13525206     0.12000
H1491       H  0.99332991  0.62812649  0.05463628     0.14700
H1492       H  0.02094702  0.58305778  0.09435319     0.13500
H1493       H  0.02507880  0.67662130  0.19476308     0.11200
H1494       H  0.98528526  0.72347179  0.17071252     0.13200
C1495       C  0.98825986  0.81777089  0.31000375     0.19300
C1496       C  0.97981808  0.81953919  0.33912158    -0.18800
C1497       C  0.98590575  0.84394883  0.35564394    -0.11100
C1498       C  0.00066134  0.86752483  0.34349242     0.21500
C1499       C  0.00845437  0.86627260  0.31411533    -0.20400
C1500       C  0.00251785  0.84156874  0.29750433    -0.11300
C1501       C  0.00615212  0.89419775  0.36064370    -0.15400
C1502       C  0.00878439  0.89371572  0.38968958    -0.29300
C1503       C  0.98195642  0.79032538  0.29437890    -0.03600
C1504       C  0.99387940  0.78185674  0.26911711    -0.40100
H1505       H  0.96854110  0.80176670  0.34932250     0.12700
H1506       H  0.97834116  0.84443329  0.37778324     0.12300
H1507       H  0.01926926  0.88439584  0.30404940     0.11700
H1508       H  0.00891202  0.84140653  0.27501302     0.12000
H1509       H  0.00705058  0.91465253  0.34922516     0.14700
H1510       H  0.00946135  0.87316953  0.40090775     0.13500
H1511       H  0.96766505  0.77540848  0.30543420     0.11200
H1512       H  0.00722318  0.79660527  0.25678103     0.13200
C1513       C  0.96998921  0.32352373  0.80044694     0.19300
C1514       C  0.98322901  0.35038421  0.79561426    -0.18800
C1515       C  0.98805277  0.36977702  0.81835592    -0.11100
C1516       C  0.97924865  0.36311827  0.84672801     0.21500
C1517       C  0.96644432  0.33596741  0.85172536    -0.20400
C1518       C  0.96175184  0.31640179  0.82886695    -0.11300
C1519       C  0.98331250  0.38377941  0.87145499    -0.15400
C1520       C  0.98597614  0.41271590  0.86818266    -0.29300
C1521       C  0.96233177  0.30553882  0.77471515    -0.03600
C1522       C  0.95651983  0.27684821  0.77442855    -0.40100
H1523       H  0.98967221  0.35657724  0.77394200     0.12700
H1524       H  0.99877657  0.38991185  0.81350160     0.12300
H1525       H  0.95942685  0.33013303  0.87330912     0.11700
H1526       H  0.95083393  0.29624934  0.83331874     0.12000
H1527       H  0.98270584  0.37492555  0.89322301     0.14700
H1528       H  0.98491136  0.42206474  0.84670129     0.13500
H1529       H  0.96086352  0.31714463  0.75431534     0.11200
H1530       H  0.96027496  0.26373645  0.79349413     0.13200
C1531       C  0.96820989  0.17435153  0.64785568     0.19300
C1532       C  0.97661568  0.18028686  0.61922195    -0.18800
C1533       C  0.98056944  0.15823122  0.59902481    -0.11100
C1534       C  0.97608537  0.12928055  0.60681098     0.21500
C1535       C  0.96827774  0.12314462  0.63568124    -0.20400
C1536       C  0.96432647  0.14538633  0.65603309    -0.11300
C1537       C  0.97960033  0.10497356  0.58577714    -0.15400
C1538       C  0.98189257  0.10805084  0.55668998    -0.29300
C1539       C  0.96108241  0.19949981  0.66676670    -0.03600
C1540       C  0.95557585  0.19947732  0.69560146    -0.40100
H1541       H  0.97973811  0.20235261  0.61218858     0.12700
H1542       H  0.98719800  0.16424583  0.57744689     0.12300
H1543       H  0.96473838  0.10104508  0.64240570     0.11700
H1544       H  0.95747930  0.13987336  0.67772309     0.12000
H1545       H  0.97956446  0.08333592  0.59477635     0.14700
H1546       H  0.98123121  0.12920099  0.54680430     0.13500
H1547       H  0.95951408  0.22002293  0.65554175     0.11200
H1548       H  0.95918604  0.18033256  0.70856495     0.13200
C1549       C  0.97667145  0.70164263  0.82293377     0.19300
C1550       C  0.96034376  0.67615193  0.82113537    -0.18800
C1551       C  0.96152873  0.65523557  0.84282950    -0.11100
C1552       C  0.97913628  0.65914838  0.86718112     0.21500
C1553       C  0.99397263  0.68551459  0.87017699    -0.20400
C1554       C  0.99305987  0.70649727  0.84812418    -0.11300
C1555       C  0.98260346  0.63582070  0.88925226    -0.15400
C1556       C  0.98155384  0.60745204  0.88232372    -0.29300
C1557       C  0.97776275  0.72022717  0.79650545    -0.03600
C1558       C  0.99430782  0.74387226  0.79210287    -0.40100
H1559       H  0.94727364  0.67181609  0.80221840     0.12700
H1560       H  0.94883202  0.63581909  0.84026111     0.12300
H1561       H  0.00725715  0.68935825  0.88904233     0.11700
H1562       H  0.00582058  0.72586941  0.85053105     0.12000
H1563       H  0.98763999  0.64214574  0.91132246     0.14700
H1564       H  0.97812198  0.60116986  0.85995297     0.13500
H1565       H  0.96605373  0.71198813  0.77785913     0.11200
H1566       H  0.00552436  0.75435995  0.80978600     0.13200
C1567       C  0.98441121  0.85046874  0.66868410     0.19300
C1568       C  0.97047417  0.84868921  0.64177261    -0.18800
C1569       C  0.97080771  0.87176008  0.62243772    -0.11100
C1570       C  0.98532017  0.89747764  0.62927144     0.21500
C1571       C  0.99788330  0.90010480  0.65687523    -0.20400
C1572       C  0.99769705  0.87671922  0.67638188    -0.11300
C1573       C  0.98788040  0.92117097  0.60743307    -0.15400
C1574       C  0.99017770  0.91521918  0.57890627    -0.29300
C1575       C  0.98609390  0.82340733  0.68611927    -0.03600
C1576       C  0.99888275  0.81964777  0.71215327    -0.40100
H1577       H  0.95980969  0.82894376  0.63521963     0.12700
H1578       H  0.95984276  0.86923746  0.60193114     0.12300
H1579       H  0.00880914  0.91985840  0.66289976     0.11700
H1580       H  0.00860808  0.87905008  0.69690909     0.12000
H1581       H  0.98899613  0.94335875  0.61486848     0.14700
H1582       H  0.99112936  0.89283341  0.57211567     0.13500
H1583       H  0.97706324  0.80436569  0.67578506     0.11200
H1584       H  0.00646277  0.83787533  0.72473647     0.13200
C1585       C  0.19563907  0.64344144  0.53747050     0.19300
C1586       C  0.17077099  0.63986693  0.55436863    -0.18800
C1587       C  0.15114885  0.61782064  0.54845645    -0.11100
C1588       C  0.15607806  0.59847695  0.52561616     0.21500
C1589       C  0.18207856  0.60046991  0.51022074    -0.20400
C1590       C  0.20165530  0.62285853  0.51590018    -0.11300
C1591       C  0.13466827  0.57579498  0.51795565    -0.15400
C1592       C  0.10608344  0.57953273  0.52118613    -0.29300
C1593       C  0.21199986  0.67085677  0.54102105    -0.03600
C1594       C  0.23181556  0.68118356  0.52237328    -0.40100
H1595       H  0.16574422  0.65505531  0.57144072     0.12700
H1596       H  0.13199219  0.61615307  0.56165818     0.12300
H1597       H  0.18673791  0.58531765  0.49302234     0.11700
H1598       H  0.22083424  0.62434762  0.50277499     0.12000
H1599       H  0.14260559  0.55585286  0.50863216     0.14700
H1600       H  0.09795237  0.60018307  0.52858554     0.13500
H1601       H  0.20412529  0.68555727  0.55755515     0.11200
H1602       H  0.24157289  0.66760518  0.50603635     0.13200
C1603       C  0.82330483  0.32567515  0.49001743     0.19300
C1604       C  0.82370620  0.33792554  0.51789779    -0.18800
C1605       C  0.84616133  0.35666088  0.52607489    -0.11100
C1606       C  0.86895795  0.36269564  0.50694724     0.21500
C1607       C  0.86852923  0.35027656  0.47926863    -0.20400
C1608       C  0.84589700  0.33231233  0.47088007    -0.11300
C1609       C  0.89174407  0.38388969  0.51484444    -0.15400
C1610       C  0.91938158  0.38071478  0.50655275    -0.29300
C1611       C  0.80089384  0.30507288  0.47957105    -0.03600
C1612       C  0.78387353  0.28810185  0.49623135    -0.40100
H1613       H  0.80663947  0.33348385  0.53317973     0.12700
H1614       H  0.84583499  0.36635235  0.54740053     0.12300
H1615       H  0.88531955  0.35507934  0.46373710     0.11700
H1616       H  0.84625434  0.32325011  0.44926571     0.12000
H1617       H  0.88540339  0.40293159  0.52692397     0.14700
H1618       H  0.92605518  0.36069516  0.49640840     0.13500
H1619       H  0.80125812  0.30069028  0.45645070     0.11200
H1620       H  0.78163214  0.29211456  0.51924811     0.13200
C1621       C  0.20586867  0.32495860  0.51459886     0.19300
C1622       C  0.18181541  0.32668783  0.53292553    -0.18800
C1623       C  0.16091721  0.34791699  0.52912401    -0.11100
C1624       C  0.16332644  0.36828012  0.50673478     0.21500
C1625       C  0.18826958  0.36775049  0.48935339    -0.20400
C1626       C  0.20927247  0.34617358  0.49303447    -0.11300
C1627       C  0.14050399  0.39060482  0.50190210    -0.15400
C1628       C  0.11243875  0.38621505  0.50853907    -0.29300
C1629       C  0.22416527  0.29865166  0.51718506    -0.03600
C1630       C  0.24811573  0.29212044  0.50192605    -0.40100
H1631       H  0.17862821  0.31087546  0.54989794     0.12700
H1632       H  0.14282493  0.34823995  0.54383550     0.12300
H1633       H  0.19106749  0.38353335  0.47230341     0.11700
H1634       H  0.22745181  0.34566344  0.47844049     0.12000
H1635       H  0.14687459  0.41091806  0.49208803     0.14700
H1636       H  0.10564897  0.36515115  0.51622754     0.13500
H1637       H  0.21578367  0.28201075  0.53150585     0.11200
H1638       H  0.25899149  0.30817469  0.48878883     0.13200
C1639       C  0.83747513  0.65440617  0.50244047     0.19300
C1640       C  0.84363717  0.63167681  0.48334575    -0.18800
C1641       C  0.86684211  0.61320657  0.48839567    -0.11100
C1642       C  0.88484885  0.61723011  0.51255908     0.21500
C1643       C  0.87849904  0.63968610  0.53192240    -0.20400
C1644       C  0.85489229  0.65791956  0.52711746    -0.11300
C1645       C  0.91102200  0.59912190  0.51692823    -0.15400
C1646       C  0.91130772  0.57106942  0.50958522    -0.29300
C1647       C  0.81572650  0.67631651  0.49362143    -0.03600
C1648       C  0.80134885  0.69393165  0.51190204    -0.40100
H1649       H  0.83091397  0.62869627  0.46393361     0.12700
H1650       H  0.87137344  0.59656340  0.47263072     0.12300
H1651       H  0.89207835  0.64336939  0.55060164     0.11700
H1652       H  0.85123356  0.67560148  0.54192509     0.12000
H1653       H  0.92985580  0.60872186  0.52699329     0.14700
H1654       H  0.89151435  0.56123257  0.50188589     0.13500
H1655       H  0.81217512  0.67877957  0.47049696     0.11200
H1656       H  0.80242966  0.69035905  0.53509427     0.13200
C1657       C  0.18409767  0.49565167  0.33205592     0.19300
C1658       C  0.15990338  0.51306297  0.33642435    -0.18800
C1659       C  0.14289013  0.50986810  0.36098619    -0.11100
C1660       C  0.14944968  0.48890001  0.38187132     0.21500
C1661       C  0.17446890  0.47238088  0.37842838    -0.20400
C1662       C  0.19164357  0.47556946  0.35362558    -0.11300
C1663       C  0.13042115  0.48439067  0.40731639    -0.15400
C1664       C  0.10192517  0.48906771  0.40567854    -0.29300
C1665       C  0.19849634  0.49761373  0.30341402    -0.03600
C1666       C  0.22186764  0.48270804  0.29498774    -0.40100
H1667       H  0.15363725  0.52884804  0.32035419     0.12700
H1668       H  0.12452619  0.52390209  0.36347217     0.12300
H1669       H  0.18021124  0.45638743  0.39447982     0.11700
H1670       H  0.21008273  0.46168693  0.35114585     0.12000
H1671       H  0.13979054  0.47651311  0.42733762     0.14700
H1672       H  0.09229050  0.49453273  0.38499776     0.13500
H1673       H  0.18800014  0.51123836  0.28748926     0.11200
H1674       H  0.23462212  0.47074750  0.31047573     0.13200
C1675       C  0.84027116  0.49986486  0.33186644     0.19300
C1676       C  0.83893771  0.47803196  0.35302264    -0.18800
C1677       C  0.86183211  0.47426140  0.37269211    -0.11100
C1678       C  0.88654459  0.49199049  0.37124125     0.21500
C1679       C  0.88790108  0.51317018  0.34970499    -0.20400
C1680       C  0.86503581  0.51727890  0.33063317    -0.11300
C1681       C  0.91159575  0.48918995  0.39126678    -0.15400
C1682       C  0.90943927  0.48008342  0.41884871    -0.29300
C1683       C  0.81747429  0.50550442  0.30979068    -0.03600
C1684       C  0.79649255  0.48724034  0.30079452    -0.40100
H1685       H  0.82033335  0.46407285  0.35456753     0.12700
H1686       H  0.86033982  0.45724535  0.38864597     0.12300
H1687       H  0.90664561  0.52697617  0.34785650     0.11700
H1688       H  0.86694614  0.53408563  0.31445452     0.12000
H1689       H  0.93224306  0.49724912  0.38370136     0.14700
H1690       H  0.88854543  0.47394355  0.42737251     0.13500
H1691       H  0.82005553  0.52551196  0.29780152     0.11200
H1692       H  0.79182930  0.46754232  0.31256261     0.13200
C1693       C  0.17484771  0.46697065  0.69333193     0.19300
C1694       C  0.18268753  0.47751059  0.66590782    -0.18800
C1695       C  0.16286012  0.47723246  0.64311248    -0.11100
C1696       C  0.13492474  0.46610553  0.64733816     0.21500
C1697       C  0.12781124  0.45427363  0.67434239    -0.20400
C1698       C  0.14747444  0.45483893  0.69709963    -0.11300
C1699       C  0.11177530  0.46830220  0.62533880    -0.15400
C1700       C  0.11604679  0.47524140  0.59743979    -0.29300
C1701       C  0.19204305  0.47352708  0.71946702    -0.03600
C1702       C  0.22070559  0.47776828  0.71982632    -0.40100
H1703       H  0.20333315  0.48781124  0.66257058     0.12700
H1704       H  0.16917677  0.48712332  0.62291025     0.12300
H1705       H  0.10650809  0.44558876  0.67823545     0.11700
H1706       H  0.14081035  0.44694921  0.71813834     0.12000
H1707       H  0.08996482  0.46394613  0.63262011     0.14700
H1708       H  0.13757314  0.47832333  0.58898404     0.13500
H1709       H  0.17994073  0.47783162  0.73915885     0.11200
H1710       H  0.23398057  0.47189912  0.70143632     0.13200
C1711       C  0.83451773  0.45817034  0.67869476     0.19300
C1712       C  0.86385590  0.45249993  0.68298953    -0.18800
C1713       C  0.88358594  0.45508264  0.66030532    -0.11100
C1714       C  0.87448246  0.46370820  0.63260588     0.21500
C1715       C  0.84491677  0.46786421  0.62787369    -0.20400
C1716       C  0.82509500  0.46527481  0.65066973    -0.11300
C1717       C  0.89504049  0.46794091  0.60813015    -0.15400
C1718       C  0.92339468  0.47310947  0.61173642    -0.29300
C1719       C  0.81595257  0.46095260  0.70480982    -0.03600
C1720       C  0.78702826  0.46382472  0.70519598    -0.40100
H1721       H  0.87175176  0.44691415  0.70431929     0.12700
H1722       H  0.90590334  0.45040373  0.66473123     0.12300
H1723       H  0.83723107  0.47407642  0.60665088     0.11700
H1724       H  0.80276862  0.47018091  0.64651936     0.12000
H1725       H  0.88636656  0.46706460  0.58631478     0.14700
H1726       H  0.93228894  0.47519876  0.63333366     0.13500
H1727       H  0.82731472  0.46395580  0.72518376     0.11200
H1728       H  0.77408641  0.45938486  0.68618578     0.13200
C1729       C  0.97432076  0.64968138  0.33298674     0.19300
C1730       C  0.97655675  0.65470608  0.36277194    -0.18800
C1731       C  0.98043658  0.63184968  0.38200396    -0.11100
C1732       C  0.98213444  0.60328399  0.37182767     0.21500
C1733       C  0.97797812  0.59807605  0.34216854    -0.20400
C1734       C  0.97421308  0.62103942  0.32286006    -0.11300
C1735       C  0.98772855  0.57860512  0.39163791    -0.15400
C1736       C  0.00074516  0.58176055  0.41750834    -0.29300
C1737       C  0.97284812  0.67486642  0.31322332    -0.03600
C1738       C  0.98464178  0.67448529  0.28666465    -0.40100
H1739       H  0.97606219  0.67650938  0.37114918     0.12700
H1740       H  0.98196256  0.63680998  0.40480571     0.12300
H1741       H  0.97826683  0.57624917  0.33383727     0.11700
H1742       H  0.97131153  0.61632286  0.30010254     0.12000
H1743       H  0.98112315  0.55721582  0.38463608     0.14700
H1744       H  0.00800971  0.60281923  0.42462970     0.13500
H1745       H  0.96360288  0.69465548  0.32155196     0.11200
H1746       H  0.99413525  0.65465014  0.27871620     0.13200
C1747       C  0.94904666  0.36026184  0.61633395     0.19300
C1748       C  0.93209058  0.33615338  0.60974916    -0.18800
C1749       C  0.91491850  0.32338877  0.63103777    -0.11100
C1750       C  0.91431257  0.33481352  0.65932761     0.21500
C1751       C  0.92845295  0.36108663  0.66462593    -0.20400
C1752       C  0.94572130  0.37367943  0.64340320    -0.11300
C1753       C  0.90476625  0.31784044  0.68492722    -0.15400
C1754       C  0.90018299  0.28914774  0.68382562    -0.29300
C1755       C  0.96916962  0.37163705  0.59427480    -0.03600
C1756       C  0.99310471  0.38648245  0.60116449    -0.40100
H1757       H  0.93325407  0.32630941  0.58851677     0.12700
H1758       H  0.90354489  0.30387574  0.62538743     0.12300
H1759       H  0.92783642  0.37088575  0.68591068     0.11700
H1760       H  0.95695053  0.39349726  0.64852501     0.12000
H1761       H  0.90978248  0.32769222  0.70557842     0.14700
H1762       H  0.89361239  0.27944618  0.66355961     0.13500
H1763       H  0.96315596  0.36913728  0.57166597     0.11200
H1764       H  0.99920147  0.38926973  0.62367631     0.13200
C1765       C  0.01268179  0.66645854  0.67062157     0.19300
C1766       C  0.00048246  0.63928818  0.67626731    -0.18800
C1767       C  0.00182545  0.61725497  0.65575180    -0.11100
C1768       C  0.01547840  0.62199316  0.62902671     0.21500
C1769       C  0.02825227  0.64883160  0.62357339    -0.20400
C1770       C  0.02710054  0.67082219  0.64415545    -0.11300
C1771       C  0.01531954  0.60022823  0.60564286    -0.15400
C1772       C  0.01319483  0.57176753  0.61046640    -0.29300
C1773       C  0.00885086  0.68947695  0.69266963    -0.03600
C1774       C  0.01879297  0.71671264  0.69027652    -0.40100
H1775       H  0.98927527  0.63524207  0.69643616     0.12700
H1776       H  0.99120394  0.59703048  0.66052294     0.12300
H1777       H  0.03893309  0.65290529  0.60312155     0.11700
H1778       H  0.03714052  0.69110999  0.63873989     0.12000
H1779       H  0.01795902  0.60799688  0.58359910     0.14700
H1780       H  0.01237602  0.56344278  0.63240971     0.13500
H1781       H  0.99601461  0.68375008  0.71143502     0.11200
H1782       H  0.03020407  0.72359670  0.67104913     0.13200
C1783       C  0.00910963  0.31104100  0.12624413     0.19300
C1784       C  0.03233778  0.32919007  0.11911207    -0.18800
C1785       C  0.03021793  0.34935165  0.09672572    -0.11100
C1786       C  0.00478803  0.35182727  0.08058662     0.21500
C1787       C  0.98223053  0.33231460  0.08617654    -0.20400
C1788       C  0.98417900  0.31228935  0.10898983    -0.11300
C1789       C  0.00148295  0.37469293  0.05806399    -0.15400
C1790       C  0.01274771  0.40139369  0.06125036    -0.29300
C1791       C  0.01114539  0.29425734  0.15380328    -0.03600
C1792       C  0.99097889  0.27643954  0.16516016    -0.40100
H1793       H  0.05195803  0.32860422  0.13171571     0.12700
H1794       H  0.04842061  0.36327378  0.09231503     0.12300
H1795       H  0.96257821  0.33341346  0.07367536     0.11700
H1796       H  0.96579949  0.29873513  0.11361031     0.12000
H1797       H  0.98812387  0.37003572  0.03934804     0.14700
H1798       H  0.02384459  0.40682307  0.08121890     0.13500
H1799       H  0.02986615  0.29890377  0.16712616     0.11200
H1800       H  0.97268197  0.26930735  0.15249562     0.13200
C1801       C  0.99737801  0.16826156  0.28714172     0.19300
C1802       C  0.02124263  0.15275836  0.29724516    -0.18800
C1803       C  0.01823852  0.13185391  0.31895843    -0.11100
C1804       C  0.99124720  0.12635241  0.33161279     0.21500
C1805       C  0.96721535  0.14133442  0.32095623    -0.20400
C1806       C  0.97015727  0.16187927  0.29876002    -0.11300
C1807       C  0.98803481  0.10720847  0.35751593    -0.15400
C1808       C  0.00515286  0.08440866  0.36275011    -0.29300
C1809       C  0.00245134  0.19416965  0.26875725    -0.03600
C1810       C  0.98415959  0.20470112  0.24865030    -0.40100
H1811       H  0.04253067  0.15764047  0.28904692     0.12700
H1812       H  0.03736080  0.12126453  0.32690013     0.12300
H1813       H  0.94620418  0.13769470  0.33040741     0.11700
H1814       H  0.95147027  0.17398128  0.29200394     0.12000
H1815       H  0.97048552  0.11157489  0.37240241     0.14700
H1816       H  0.02090258  0.07803988  0.34663140     0.13500
H1817       H  0.02219377  0.20605968  0.27297695     0.11200
H1818       H  0.96542697  0.19234502  0.24203089     0.13200
C1819       C  0.01898570  0.33008771  0.31441955     0.19300
C1820       C  0.03157563  0.32414504  0.34137185    -0.18800
C1821       C  0.03289314  0.34527301  0.36286563    -0.11100
C1822       C  0.02155429  0.37288082  0.35780580     0.21500
C1823       C  0.01015837  0.37927204  0.33054146    -0.20400
C1824       C  0.00856559  0.35811109  0.30913532    -0.11300
C1825       C  0.02066346  0.39529767  0.38059845    -0.15400
C1826       C  0.01781817  0.38870811  0.40875688    -0.29300
C1827       C  0.01581043  0.30602749  0.29336196    -0.03600
C1828       C  0.00586429  0.30922283  0.26618787    -0.40100
H1829       H  0.03999770  0.30289905  0.34602547     0.12700
H1830       H  0.04272341  0.33988445  0.38337663     0.12300
H1831       H  0.00148478  0.40046351  0.32612168     0.11700
H1832       H  0.99840580  0.36394513  0.28900168     0.12000
H1833       H  0.02046627  0.41774169  0.37386340     0.14700
H1834       H  0.01677738  0.36631770  0.41551388     0.13500
H1835       H  0.02184773  0.28472724  0.30084115     0.11200
H1836       H  0.00185108  0.33053399  0.25761556     0.13200
loop_ 
_geom_bond_atom_site_label_1 
_geom_bond_atom_site_label_2 
_geom_bond_distance 
_geom_bond_site_symmetry_2 
_ccdc_geom_bond_type 
C1            C2   1.405       .  A
C1            C6   1.415       .  A
C1         C1792   1.494       .  S
C2            C3   1.396   1_655  A
C2            H7   1.084   1_655  S
C3            C4   1.402   1_455  A
C3         C1828   1.484       .  S
C4            C5   1.405       .  A
C4            H8   1.082       .  S
C5            C6   1.415       .  A
C5         C1810   1.493       .  S
C6            H9   1.083       .  S
O10          C21   1.293       .  A
O10         Eu46   2.460       .  S
O11          C22   1.286       .  A
O11         Eu45   2.437       .  S
O12          C23   1.296       .  A
O12         Eu18   2.485       .  S
O13          C24   1.294       .  A
O13         Eu18   2.477   1_655  S
O14          C24   1.291       .  A
O14         Eu48   2.458       .  S
O15          C23   1.295       .  A
O15         Eu47   2.490       .  S
O16          C22   1.291       .  A
O16         Eu18   2.455       .  S
O17          C21   1.288       .  A
O17         Eu18   2.445       .  S
Eu18         O28   2.360   1_455  S
Eu18         O20   2.355       .  S
Eu18         O19   2.340   1_455  S
Eu18         O26   2.353       .  S
O19         Eu48   2.336       .  S
O19         Eu45   2.341   1_655  S
O20         Eu46   2.357       .  S
O20         Eu47   2.348       .  S
C21        C1826   1.472       .  S
C22        C1756   1.465   1_455  S
C23        C1628   1.494       .  S
C24        C1610   1.482       .  S
H25          O26   0.965       .  S
O26         Eu47   2.366       .  S
O26         Eu45   2.354       .  S
H27          O28   0.966       .  S
O28         Eu46   2.356   1_655  S
O28         Eu48   2.358       .  S
O29          C52   1.287       .  A
O29         Eu45   2.441       .  S
O30          C53   1.292       .  A
O30         Eu46   2.461       .  S
O31          C54   1.286       .  A
O31         Eu47   2.436       .  S
O32          C55   1.292       .  A
O32         Eu48   2.466       .  S
O33          C56   1.290       .  A
O33         Eu48   2.457       .  S
O34          C57   1.292       .  A
O34         Eu47   2.461       .  S
O35          C58   1.293       .  A
O35         Eu49   2.472       .  S
O36          C59   1.297       .  A
O36         Eu49   2.492   1_655  S
O37          C58   1.293       .  A
O37         Eu47   2.471       .  S
O38          C59   1.288       .  A
O38         Eu48   2.446       .  S
O39          C54   1.295       .  A
O39         Eu45   2.473       .  S
O40          C57   1.290       .  A
O40         Eu46   2.454       .  S
O41          C56   1.296       .  A
O41         Eu46   2.487   1_655  S
O42          C55   1.292       .  A
O42         Eu45   2.465   1_655  S
O43          C52   1.292       .  A
O43         Eu49   2.457       .  S
O44          C53   1.291       .  A
O44         Eu49   2.458       .  S
Eu45         O63   2.357   1_455  S
Eu45         O51   2.343       .  S
Eu46         O50   2.344   1_455  S
Eu46         O61   2.369       .  S
Eu47         O61   2.373       .  S
Eu47         O51   2.360       .  S
Eu48         O50   2.347       .  S
Eu48         O63   2.356       .  S
Eu49         O50   2.351   1_455  S
Eu49         O61   2.368       .  S
Eu49         O63   2.351   1_455  S
Eu49         O51   2.355       .  S
C52        C1772   1.471       .  S
C53        C1736   1.475       .  S
C54        C1700   1.474       .  S
C55        C1718   1.482       .  S
C56        C1682   1.487       .  S
C57        C1664   1.472       .  S
C58        C1592   1.483       .  S
C59        C1646   1.482       .  S
H60          O61   0.966       .  S
H62          O63   0.966       .  S
C64          C65   1.405       .  A
C64          C69   1.415   1_455  A
C64        C1558   1.495   1_455  S
C65          C66   1.399       .  A
C65          H70   1.082       .  S
C66          C67   1.396       .  A
C66        C1774   1.485       .  S
C67          C68   1.409       .  A
C67          H71   1.084       .  S
C68          C69   1.416   1_455  A
C68        C1576   1.496   1_455  S
C69          H72   1.083       .  S
C73          C74   1.418       .  A
C73          C78   1.404       .  A
C73        C1522   1.499       .  S
C74          C75   1.418       .  A
C74          H79   1.083       .  S
C75          C76   1.407       .  A
C75        C1540   1.502       .  S
C76          C77   1.398       .  A
C76          H80   1.084       .  S
C77          C78   1.400       .  A
C77        C1754   1.488       .  S
C78          H81   1.081       .  S
C82          C83   1.409       .  A
C82          C87   1.403       .  A
C82        C1486   1.487       .  S
C83          C84   1.412       .  A
C83          H88   1.084       .  S
C84          C85   1.413       .  A
C84        C1504   1.496       .  S
C85          C86   1.405       .  A
C85          H89   1.081       .  S
C86          C87   1.394       .  A
C86        C1738   1.485       .  S
C87          H90   1.084       .  S
O91         C102   1.289       .  A
O91        Eu127   2.456   1_545  S
O92         C103   1.291       .  A
O92        Eu126   2.453       .  S
O93         C104   1.294       .  A
O93         Eu99   2.473       .  S
O94         C105   1.293       .  A
O94         Eu99   2.475   1_455  S
O95         C105   1.289       .  A
O95        Eu129   2.439       .  S
O96         C104   1.285       .  A
O96        Eu128   2.423   1_545  S
O97         C103   1.295       .  A
O97         Eu99   2.479       .  S
O98         C102   1.297   1_655  A
O98         Eu99   2.500       .  S
Eu99        O109   2.359   1_655  S
Eu99        O101   2.346       .  S
Eu99        O100   2.357   1_655  S
Eu99        O107   2.377       .  S
O100       Eu129   2.346       .  S
O100       Eu126   2.352   1_455  S
O101       Eu127   2.346   1_645  S
O101       Eu128   2.358   1_545  S
C102       C1808   1.486       .  S
C103       C1538   1.485       .  S
C104       C1448   1.461       .  S
C105       C1466   1.478       .  S
H106        O107   0.978       .  S
O107       Eu128   2.357   1_545  S
O107       Eu126   2.360       .  S
H108        O109   0.968       .  S
O109       Eu127   2.369   1_545  S
O109       Eu129   2.370       .  S
O110        C133   1.293       .  A
O110       Eu126   2.477   1_565  S
O111        C134   1.293       .  A
O111       Eu127   2.470       .  S
O112        C135   1.296   1_565  A
O112       Eu128   2.495       .  S
O113        C136   1.299       .  A
O113       Eu129   2.506       .  S
O114        C137   1.293   1_545  A
O114       Eu129   2.473       .  S
O115        C138   1.295       .  A
O115       Eu128   2.474       .  S
O116        C139   1.288       .  A
O116       Eu130   2.440   1_655  S
O117        C140   1.293       .  A
O117       Eu130   2.470       .  S
O118        C139   1.290       .  A
O118       Eu128   2.449       .  S
O119        C140   1.289       .  A
O119       Eu129   2.453   1_565  S
O120        C135   1.288       .  A
O120       Eu126   2.447       .  S
O121        C138   1.293       .  A
O121       Eu127   2.478   1_655  S
O122        C137   1.289       .  A
O122       Eu127   2.446       .  S
O123        C136   1.284       .  A
O123       Eu126   2.419   1_455  S
O124        C133   1.291       .  A
O124       Eu130   2.461   1_655  S
O125        C134   1.290       .  A
O125       Eu130   2.455       .  S
Eu126       O144   2.356   1_645  S
Eu126       O132   2.344   1_545  S
Eu127       O131   2.362       .  S
Eu127       O142   2.351   1_455  S
Eu128       O142   2.356       .  S
Eu128       O132   2.345       .  S
Eu129       O131   2.355   1_545  S
Eu129       O144   2.346   1_545  S
Eu130       O131   2.344       .  S
Eu130       O142   2.359   1_455  S
Eu130       O144   2.341       .  S
Eu130       O132   2.355   1_455  S
C133       C1574   1.482       .  S
C134       C1502   1.478       .  S
C135       C1340   1.488   1_545  S
C136       C1358   1.477       .  S
C137       C1378   1.475       .  S
C138       C1396   1.492       .  S
C139       C1430   1.460       .  S
C140       C1414   1.480       .  S
H141        O142   0.962       .  S
H143        O144   0.964       .  S
C145        C146   1.407       .  A
C145        C150   1.414       .  A
C145       C1630   1.496       .  S
C146        C147   1.399       .  A
C146        H151   1.082       .  S
C147        C148   1.393       .  A
C147       C1468   1.481       .  S
C148        C149   1.407       .  A
C148        H152   1.085       .  S
C149        C150   1.414       .  A
C149       C1322   1.489       .  S
C150        H153   1.083       .  S
C154        C155   1.409       .  A
C154        C159   1.418       .  A
C154       C1304   1.497       .  S
C155        C156   1.400       .  A
C155        H160   1.080       .  S
C156        C157   1.393       .  A
C156       C1450   1.482       .  S
C157        C158   1.405       .  A
C157        H161   1.084       .  S
C158        C159   1.416       .  A
C158       C1612   1.498       .  S
C159        H162   1.083       .  S
C163        C164   1.415       .  A
C163        C168   1.401       .  A
C163       C1286   1.491       .  S
C164        C165   1.417       .  A
C164        H169   1.083       .  S
C165        C166   1.408       .  A
C165       C1648   1.496       .  S
C166        C167   1.403       .  A
C166        H170   1.083       .  S
C167        C168   1.393       .  A
C167       C1432   1.479       .  S
C168        H171   1.085       .  S
C172        C173   1.406       .  A
C172        C177   1.407       .  A
C172       C1594   1.484       .  S
C173        C174   1.397       .  A
C173        H178   1.085       .  S
C174        C175   1.402       .  A
C174       C1412   1.485       .  S
C175        C176   1.408       .  A
C175        H179   1.081       .  S
C176        C177   1.409       .  A
C176       C1268   1.490       .  S
C177        H180   1.084       .  S
C181        C182   1.406   1_545  A
C181        C186   1.416       .  A
C181       C1232   1.491       .  S
C182        C183   1.394       .  A
C182        H187   1.085       .  S
C183        C184   1.400       .  A
C183       C1252   1.484       .  S
C184        C185   1.406       .  A
C184        H188   1.080       .  S
C185        C186   1.416   1_565  A
C185       C1394   1.499   1_565  S
C186        H189   1.083       .  S
O190        C201   1.293       .  A
O190       Eu226   2.472       .  S
O191        C202   1.294       .  A
O191       Eu225   2.482       .  S
O192        C203   1.287       .  A
O192       Eu198   2.438       .  S
O193        C204   1.292       .  A
O193       Eu198   2.458       .  S
O194        C204   1.285       .  A
O194       Eu228   2.429       .  S
O195        C203   1.292       .  A
O195       Eu227   2.459       .  S
O196        C202   1.292       .  A
O196       Eu198   2.467       .  S
O197        C201   1.291       .  A
O197       Eu198   2.461   1_545  S
Eu198       O208   2.349   1_565  S
Eu198       O200   2.351   1_565  S
Eu198       O199   2.348       .  S
Eu198       O206   2.358       .  S
O199       Eu228   2.361       .  S
O199       Eu225   2.351       .  S
O200       Eu226   2.348       .  S
O200       Eu227   2.345   1_545  S
C201       C1324   1.480       .  S
C202       C1270   1.485       .  S
C203       C1178   1.467       .  S
C204       C1214   1.462       .  S
H205        O206   0.965       .  S
O206       Eu227   2.361       .  S
O206       Eu225   2.355       .  S
H207        O208   0.962       .  S
O208       Eu226   2.363       .  S
O208       Eu228   2.362   1_545  S
O209        C232   1.291       .  A
O209       Eu225   2.455       .  S
O210        C233   1.294       .  A
O210       Eu226   2.474       .  S
O211        C234   1.290       .  A
O211       Eu227   2.451       .  S
O212        C235   1.296       .  A
O212       Eu228   2.489       .  S
O213        C236   1.296       .  A
O213       Eu228   2.489   1_545  S
O214        C237   1.291       .  A
O214       Eu227   2.459   1_545  S
O215        C238   1.288       .  A
O215       Eu229   2.445       .  S
O216        C239   1.284       .  A
O216       Eu229   2.426       .  S
O217        C238   1.291       .  A
O217       Eu227   2.454       .  S
O218        C239   1.293       .  A
O218       Eu228   2.472       .  S
O219        C234   1.293       .  A
O219       Eu225   2.472       .  S
O220        C237   1.292       .  A
O220       Eu226   2.465       .  S
O221        C236   1.289       .  A
O221       Eu226   2.445       .  S
O222        C235   1.293       .  A
O222       Eu225   2.469       .  S
O223        C232   1.296       .  A
O223       Eu229   2.487       .  S
O224        C233   1.294       .  A
O224       Eu229   2.476   1_545  S
Eu225       O243   2.365       .  S
Eu225       O231   2.353       .  S
Eu226       O230   2.367       .  S
Eu226       O241   2.360       .  S
Eu227       O241   2.356   1_565  S
Eu227       O231   2.344       .  S
Eu228       O230   2.352   1_565  S
Eu228       O243   2.345       .  S
Eu229       O230   2.358   1_565  S
Eu229       O241   2.355   1_565  S
Eu229       O243   2.350       .  S
Eu229       O231   2.351       .  S
C232       C1288   1.482       .  S
C233       C1306   1.489       .  S
C234       C1124   1.477       .  S
C235       C1160   1.488       .  S
C236       C1144   1.480       .  S
C237       C1108   1.479       .  S
C238       C1250   1.472       .  S
C239       C1198   1.462       .  S
H240        O241   0.965       .  S
H242        O243   0.966       .  S
C244        C245   1.404       .  A
C244        C249   1.416   1_565  A
C244       C1090   1.497   1_565  S
C245        C246   1.397       .  A
C245        H250   1.079       .  S
C246        C247   1.394       .  A
C246       C1216   1.481       .  S
C247        C248   1.404   1_565  A
C247        H251   1.085       .  S
C248        C249   1.417       .  A
C248       C1360   1.489       .  S
C249        H252   1.083       .  S
C253        C254   1.409       .  A
C253        C258   1.401       .  A
C253       C1072   1.487   1_565  S
C254        C255   1.413       .  A
C254        H259   1.083   1_565  S
C255        C256   1.410       .  A
C255       C1342   1.492       .  S
C256        C257   1.404       .  A
C256        H260   1.079       .  S
C257        C258   1.396       .  A
C257       C1196   1.488       .  S
C258        H261   1.085       .  S
C262        C263   1.404       .  A
C262        C267   1.411       .  A
C262       C1052   1.492       .  S
C263        C264   1.395   1_565  A
C263        H268   1.084   1_565  S
C264        C265   1.398       .  A
C264       C1180   1.477       .  S
C265        C266   1.406   1_545  A
C265        H269   1.083       .  S
C266        C267   1.412       .  A
C266       C1376   1.488       .  S
C267        H270   1.083       .  S
O271        C282   1.295       .  A
O271       Eu307   2.486   1_554  S
O272        C283   1.294       .  A
O272       Eu306   2.477   1_554  S
O273        C284   1.292       .  A
O273       Eu279   2.455       .  S
O274        C285   1.294       .  A
O274       Eu279   2.470   1_565  S
O275        C285   1.288       .  A
O275       Eu309   2.441   1_554  S
O276        C284   1.286       .  A
O276       Eu308   2.431   1_554  S
O277        C283   1.292       .  A
O277       Eu279   2.465   1_565  S
O278        C282   1.291       .  A
O278       Eu279   2.462       .  S
Eu279       O289   2.354   1_544  S
Eu279       O281   2.356       .  S
Eu279       O280   2.344   1_545  S
Eu279       O287   2.357       .  S
O280       Eu309   2.349   1_554  S
O280       Eu306   2.352   1_554  S
O281       Eu307   2.354   1_554  S
O281       Eu308   2.355   1_554  S
C282       C1234   1.486       .  S
C283       C1054   1.486       .  S
C284       C1034   1.465       .  S
C285       C1016   1.476       .  S
H286        O287   0.967       .  S
O287       Eu308   2.364   1_554  S
O287       Eu306   2.350   1_544  S
H288        O289   0.967   1_554  S
O289       Eu307   2.357   1_565  S
O289       Eu309   2.357       .  S
O290        C313   1.293       .  A
O290       Eu306   2.468       .  S
O291        C314   1.291       .  A
O291       Eu307   2.457       .  S
O292        C315   1.296       .  A
O292       Eu308   2.489       .  S
O293        C316   1.294       .  A
O293       Eu309   2.479       .  S
O294        C317   1.297       .  A
O294       Eu309   2.490       .  S
O295        C318   1.296       .  A
O295       Eu308   2.493       .  S
O296        C319   1.294       .  A
O296       Eu310   2.479       .  S
O297        C320   1.292       .  A
O297       Eu310   2.468   1_565  S
O298        C319   1.285       .  A
O298       Eu308   2.430       .  S
O299        C320   1.288       .  A
O299       Eu309   2.430       .  S
O300        C315   1.291       .  A
O300       Eu306   2.461   1_545  S
O301        C318   1.289       .  A
O301       Eu307   2.446       .  S
O302        C317   1.292       .  A
O302       Eu307   2.467   1_565  S
O303        C316   1.291       .  A
O303       Eu306   2.457       .  S
O304        C313   1.292   1_545  A
O304       Eu310   2.470       .  S
O305        C314   1.295       .  A
O305       Eu310   2.475       .  S
Eu306       O324   2.365       .  S
Eu306       O312   2.346   1_565  S
Eu307       O311   2.351   1_545  S
Eu307       O322   2.382       .  S
Eu308       O322   2.365       .  S
Eu308       O312   2.345       .  S
Eu309       O311   2.344       .  S
Eu309       O324   2.359       .  S
Eu310       O311   2.353   1_545  S
Eu310       O322   2.371       .  S
Eu310       O324   2.358   1_545  S
Eu310       O312   2.343       .  S
C313       C1088   1.481       .  S
C314       C1070   1.482       .  S
C315        C964   1.486       .  S
C316        C928   1.484       .  S
C317        C946   1.493       .  S
C318        C908   1.486       .  S
C319        C980   1.469       .  S
C320        C998   1.475       .  S
H321        O322   0.970       .  S
H323        O324   0.966       .  S
C325        C326   1.416       .  A
C325        C330   1.405       .  A
C325       C1106   1.490       .  S
C326        C327   1.417       .  A
C326        H331   1.083       .  S
C327        C328   1.406       .  A
C327        C892   1.497       .  S
C328        C329   1.397       .  A
C328        H332   1.083       .  S
C329        C330   1.390       .  A
C329       C1036   1.475       .  S
C330        H333   1.085       .  S
C334        C335   1.415       .  A
C334        C339   1.412       .  A
C334        C872   1.496       .  S
C335        C336   1.410       .  A
C335        H340   1.083       .  S
C336        C337   1.405       .  A
C336       C1126   1.494       .  S
C337        C338   1.396       .  A
C337        H341   1.084       .  S
C338        C339   1.403       .  A
C338       C1018   1.486       .  S
C339        H342   1.081       .  S
C343        C344   1.419       .  A
C343        C348   1.407       .  A
C343        C856   1.495       .  S
C344        C345   1.418       .  A
C344        H349   1.083       .  S
C345        C346   1.403       .  A
C345       C1162   1.497       .  S
C346        C347   1.396       .  A
C346        H350   1.082       .  S
C347        C348   1.391       .  A
C347       C1000   1.477       .  S
C348        H351   1.084       .  S
C352        C353   1.407       .  A
C352        C357   1.400       .  A
C352       C1142   1.481       .  S
C353        C354   1.410       .  A
C353        H358   1.083       .  S
C354        C355   1.411       .  A
C354        C838   1.491       .  S
C355        C356   1.406       .  A
C355        H359   1.078       .  S
C356        C357   1.394       .  A
C356        C982   1.488       .  S
C357        H360   1.085       .  S
O361        C372   1.294       .  A
O361       Eu397   2.483   1_454  S
O362        C373   1.293       .  A
O362       Eu396   2.469   1_454  S
O363        C374   1.290       .  A
O363       Eu369   2.444       .  S
O364        C375   1.287       .  A
O364       Eu369   2.442   1_655  S
O365        C375   1.292       .  A
O365       Eu399   2.460   1_554  S
O366        C374   1.290       .  A
O366       Eu398   2.458   1_554  S
O367        C373   1.290       .  A
O367       Eu369   2.455       .  S
O368        C372   1.293       .  A
O368       Eu369   2.471       .  S
Eu369       O379   2.354   1_455  S
Eu369       O371   2.342   1_554  S
Eu369       O370   2.354   1_455  S
Eu369       O377   2.360   1_554  S
O370       Eu399   2.349   1_554  S
O370       Eu396   2.352   1_554  S
O371       Eu397   2.354   1_455  S
O371       Eu398   2.360       .  S
C372       C1790   1.486       .  S
C373       C1484   1.478       .  S
C374        C800   1.475       .  S
C375        C820   1.470       .  S
H376        O377   0.965   1_554  S
O377       Eu398   2.358       .  S
O377       Eu396   2.360   1_455  S
H378        O379   0.966       .  S
O379       Eu397   2.360   1_554  S
O379       Eu399   2.359   1_554  S
O380        C403   1.291       .  A
O380       Eu396   2.460       .  S
O381        C404   1.292       .  A
O381       Eu397   2.464       .  S
O382        C405   1.297       .  A
O382       Eu398   2.493       .  S
O383        C406   1.295       .  A
O383       Eu399   2.488       .  S
O384        C407   1.293       .  A
O384       Eu399   2.468       .  S
O385        C408   1.295       .  A
O385       Eu398   2.476       .  S
O386        C409   1.286       .  A
O386       Eu400   2.436   1_455  S
O387        C410   1.290       .  A
O387       Eu400   2.443       .  S
O388        C409   1.291       .  A
O388       Eu398   2.453       .  S
O389        C410   1.286       .  A
O389       Eu399   2.439       .  S
O390        C405   1.288       .  A
O390       Eu396   2.449   1_455  S
O391        C408   1.295       .  A
O391       Eu397   2.482   1_455  S
O392        C407   1.296       .  A
O392       Eu397   2.487       .  S
O393        C406   1.292       .  A
O393       Eu396   2.467       .  S
O394        C403   1.297       .  A
O394       Eu400   2.493       .  S
O395        C404   1.298       .  A
O395       Eu400   2.497       .  S
Eu396       O414   2.346       .  S
Eu396       O402   2.357   1_655  S
Eu397       O401   2.361       .  S
Eu397       O412   2.375   1_655  S
Eu398       O412   2.364       .  S
Eu398       O402   2.347       .  S
Eu399       O401   2.363       .  S
Eu399       O414   2.348       .  S
Eu400       O401   2.354       .  S
Eu400       O412   2.362   1_655  S
Eu400       O414   2.356       .  S
Eu400       O402   2.352   1_655  S
C403       C1556   1.488       .  S
C404       C1520   1.492       .  S
C405        C728   1.484       .  S
C406        C692   1.490       .  S
C407        C710   1.491       .  S
C408        C748   1.490       .  S
C409        C782   1.467       .  S
C410        C764   1.456       .  S
H411        O412   0.966       .  S
H413        O414   0.965       .  S
C415        C416   1.408       .  A
C415        C420   1.422       .  A
C415       C1684   1.502       .  S
C416        C417   1.395       .  A
C416        H421   1.083       .  S
C417        C418   1.388       .  A
C417        C818   1.473       .  S
C418        C419   1.402       .  A
C418        H422   1.085       .  S
C419        C420   1.421       .  A
C419        C676   1.497       .  S
C420        H423   1.083       .  S
C424        C425   1.404       .  A
C424        C429   1.407       .  A
C424        C656   1.485       .  S
C425        C426   1.397       .  A
C425        H430   1.081       .  S
C426        C427   1.396       .  A
C426        C802   1.483       .  S
C427        C428   1.409       .  A
C427        H431   1.083       .  S
C428        C429   1.409       .  A
C428       C1666   1.487       .  S
C429        H432   1.083       .  S
C433        C434   1.411       .  A
C433        C438   1.407       .  A
C433        C638   1.492       .  S
C434        C435   1.408       .  A
C434        H439   1.083       .  S
C435        C436   1.403       .  A
C435       C1702   1.482       .  S
C436        C437   1.401       .  A
C436        H440   1.079       .  S
C437        C438   1.397       .  A
C437        C784   1.486       .  S
C438        H441   1.083       .  S
C442        C443   1.400       .  A
C442        C447   1.413       .  A
C442       C1720   1.488       .  S
C443        C444   1.392       .  A
C443        H448   1.085       .  S
C444        C445   1.404       .  A
C444        C766   1.483       .  S
C445        C446   1.409       .  A
C445        H449   1.080       .  S
C446        C447   1.416       .  A
C446        C620   1.496       .  S
C447        H450   1.083       .  S
C451        C452   1.417       .  A
C451        C456   1.410   1_556  A
C451        C746   1.501       .  S
C452        C453   1.415       .  A
C452        H457   1.083       .  S
C453        C454   1.403   1_556  A
C453        C962   1.496       .  S
C454        C455   1.395       .  A
C454        H458   1.084       .  S
C455        C456   1.403       .  A
C455        C602   1.486       .  S
C456        H459   1.080       .  S
O460        C471   1.294       .  A
O460       Eu496   2.481       .  S
O461        C472   1.291       .  A
O461       Eu495   2.459       .  S
O462        C473   1.293       .  A
O462       Eu468   2.469       .  S
O463        C474   1.290       .  A
O463       Eu468   2.456       .  S
O464        C474   1.290       .  A
O464       Eu498   2.444       .  S
O465        C473   1.285       .  A
O465       Eu497   2.427       .  S
O466        C472   1.294       .  A
O466       Eu468   2.481   1_556  S
O467        C471   1.295       .  A
O467       Eu468   2.478       .  S
Eu468       O478   2.358       .  S
Eu468       O470   2.348       .  S
Eu468       O469   2.366   1_554  S
Eu468       O476   2.359   1_554  S
O469       Eu498   2.365   1_556  S
O469       Eu495   2.365       .  S
O470       Eu496   2.348       .  S
O470       Eu497   2.351       .  S
C471        C890   1.492       .  S
C472        C836   1.484       .  S
C473        C604   1.466       .  S
C474        C550   1.466       .  S
H475        O476   0.965       .  S
O476       Eu497   2.368   1_556  S
O476       Eu495   2.364       .  S
H477        O478   0.963       .  S
O478       Eu496   2.348       .  S
O478       Eu498   2.360       .  S
O479        C502   1.295       .  A
O479       Eu495   2.484       .  S
O480        C503   1.293       .  A
O480       Eu496   2.472       .  S
O481        C504   1.295       .  A
O481       Eu497   2.479   1_556  S
O482        C505   1.299       .  A
O482       Eu498   2.513   1_556  S
O483        C506   1.297       .  A
O483       Eu498   2.492       .  S
O484        C507   1.295       .  A
O484       Eu497   2.476       .  S
O485        C508   1.286       .  A
O485       Eu499   2.434   1_556  S
O486        C509   1.290       .  A
O486       Eu499   2.443   1_556  S
O487        C508   1.294   1_554  A
O487       Eu497   2.474       .  S
O488        C509   1.288   1_554  A
O488       Eu498   2.447       .  S
O489        C504   1.290       .  A
O489       Eu495   2.455       .  S
O490        C507   1.287       .  A
O490       Eu496   2.440       .  S
O491        C506   1.292       .  A
O491       Eu496   2.464       .  S
O492        C505   1.290       .  A
O492       Eu495   2.453       .  S
O493        C502   1.291       .  A
O493       Eu499   2.461   1_556  S
O494        C503   1.290       .  A
O494       Eu499   2.457       .  S
Eu495       O513   2.357       .  S
Eu495       O501   2.349       .  S
Eu496       O500   2.354       .  S
Eu496       O511   2.365       .  S
Eu497       O511   2.357       .  S
Eu497       O501   2.342   1_554  S
Eu498       O500   2.354       .  S
Eu498       O513   2.357   1_554  S
Eu499       O500   2.345       .  S
Eu499       O511   2.356       .  S
Eu499       O513   2.348   1_554  S
Eu499       O501   2.344   1_554  S
C502        C854   1.485       .  S
C503        C874   1.481       .  S
C504        C640   1.482       .  S
C505        C622   1.489       .  S
C506        C674   1.490       .  S
C507        C658   1.473       .  S
C508        C566   1.473       .  S
C509        C586   1.469       .  S
H510        O511   0.966       .  S
H512        O513   0.968       .  S
C514        C515   1.403       .  A
C514        C519   1.423       .  A
C514        C944   1.500       .  S
C515        C516   1.389       .  A
C515        H520   1.085       .  S
C516        C517   1.395       .  A
C516        C584   1.474   1_556  S
C517        C518   1.404       .  A
C517        H521   1.082       .  S
C518        C519   1.423       .  A
C518        C694   1.503       .  S
C519        H522   1.083       .  S
C523        C524   1.418       .  A
C523        C528   1.413       .  A
C523        C926   1.498       .  S
C524        C525   1.415       .  A
C524        H529   1.083       .  S
C525        C526   1.401       .  A
C525        C730   1.491       .  S
C526        C527   1.388       .  A
C526        H530   1.085       .  S
C527        C528   1.398       .  A
C527        C568   1.478       .  S
C528        H531   1.082       .  S
C532        C533   1.418       .  A
C532        C537   1.403   1_556  A
C532        C712   1.495       .  S
C533        C534   1.421       .  A
C533        H538   1.083       .  S
C534        C535   1.409   1_556  A
C534        C910   1.506       .  S
C535        C536   1.401       .  A
C535        H539   1.080       .  S
C536        C537   1.391       .  A
C536        C548   1.482       .  S
C537        H540   1.085       .  S
C541        C542   1.404       .  A
C541        C546   1.406       .  A
C541        C549   1.480       .  S
C542        C543   1.398       .  A
C542        H551   1.084       .  S
C543        C544   1.407       .  A
C543        H552   1.082       .  S
C544        C545   1.400       .  A
C544        C547   1.478       .  S
C545        C546   1.392       .  A
C545        H553   1.084       .  S
C546        H554   1.081       .  S
C547        H555   1.086       .  S
C547        C548   1.344       .  D
C548        H556   1.086       .  S
C549        H557   1.088       .  S
C549        C550   1.347       .  D
C550        H558   1.084       .  S
C559        C560   1.401       .  A
C559        C564   1.410       .  A
C559        C567   1.486       .  S
C560        C561   1.398       .  A
C560        H569   1.084   1_556  S
C561        C562   1.410       .  A
C561        H570   1.081   1_556  S
C562        C563   1.401       .  A
C562        C565   1.487       .  S
C563        C564   1.396       .  A
C563        H571   1.083       .  S
C564        H572   1.081       .  S
C565        H573   1.087       .  S
C565        C566   1.342       .  D
C566        H574   1.084       .  S
C567        H575   1.086       .  S
C567        C568   1.343       .  D
C568        H576   1.084       .  S
C577        C578   1.402   1_556  A
C577        C582   1.407       .  A
C577        C585   1.480   1_556  S
C578        C579   1.394       .  A
C578        H587   1.084       .  S
C579        C580   1.408   1_554  A
C579        H588   1.079       .  S
C580        C581   1.401       .  A
C580        C583   1.479       .  S
C581        C582   1.393       .  A
C581        H589   1.084       .  S
C582        H590   1.080       .  S
C583        H591   1.086       .  S
C583        C584   1.343   1_556  D
C584        H592   1.083       .  S
C585        H593   1.087       .  S
C585        C586   1.344   1_554  D
C586        H594   1.083       .  S
C595        C596   1.397       .  A
C595        C600   1.406       .  A
C595        C603   1.475       .  S
C596        C597   1.396       .  A
C596        H605   1.084       .  S
C597        C598   1.411       .  A
C597        H606   1.082       .  S
C598        C599   1.402       .  A
C598        C601   1.481       .  S
C599        C600   1.396       .  A
C599        H607   1.083       .  S
C600        H608   1.083       .  S
C601        H609   1.084       .  S
C601        C602   1.344       .  D
C602        H610   1.087       .  S
C603        H611   1.087       .  S
C603        C604   1.341       .  D
C604        H612   1.087       .  S
C613        C614   1.409       .  A
C613        C618   1.407       .  A
C613        C621   1.501       .  S
C614        C615   1.411       .  A
C614        H623   1.083       .  S
C615        C616   1.409       .  A
C615        H624   1.083       .  S
C616        C617   1.402       .  A
C616        C619   1.491       .  S
C617        C618   1.397       .  A
C617        H625   1.084       .  S
C618        H626   1.082       .  S
C619        H627   1.088       .  S
C619        C620   1.351       .  D
C620        H628   1.086       .  S
C621        H629   1.086       .  S
C621        C622   1.350       .  D
C622        H630   1.087       .  S
C631        C632   1.402       .  A
C631        C636   1.413       .  A
C631        C639   1.495       .  S
C632        C633   1.396       .  A
C632        H641   1.083       .  S
C633        C634   1.405       .  A
C633        H642   1.084       .  S
C634        C635   1.407       .  A
C634        C637   1.490       .  S
C635        C636   1.404       .  A
C635        H643   1.081       .  S
C636        H644   1.080       .  S
C637        H645   1.086       .  S
C637        C638   1.354       .  D
C638        H646   1.084       .  S
C639        H647   1.087       .  S
C639        C640   1.346       .  D
C640        H648   1.083       .  S
C649        C650   1.400       .  A
C649        C654   1.410       .  A
C649        C657   1.486       .  S
C650        C651   1.393       .  A
C650        H659   1.083       .  S
C651        C652   1.403       .  A
C651        H660   1.084       .  S
C652        C653   1.408       .  A
C652        C655   1.485       .  S
C653        C654   1.403       .  A
C653        H661   1.081       .  S
C654        H662   1.081       .  S
C655        H663   1.088       .  S
C655        C656   1.348       .  D
C656        H664   1.084       .  S
C657        H665   1.088       .  S
C657        C658   1.342       .  D
C658        H666   1.085       .  S
C667        C668   1.407       .  A
C667        C672   1.408       .  A
C667        C675   1.496       .  S
C668        C669   1.400       .  A
C668        H677   1.084       .  S
C669        C670   1.406       .  A
C669        H678   1.082       .  S
C670        C671   1.409       .  A
C670        C673   1.501       .  S
C671        C672   1.410       .  A
C671        H679   1.083       .  S
C672        H680   1.081       .  S
C673        H681   1.087       .  S
C673        C674   1.355       .  D
C674        H682   1.085       .  S
C675        H683   1.088       .  S
C675        C676   1.358       .  D
C676        H684   1.084       .  S
C685        C686   1.407       .  A
C685        C690   1.409   1_556  A
C685        C693   1.500       .  S
C686        C687   1.409       .  A
C686        H695   1.081       .  S
C687        C688   1.409       .  A
C687        H696   1.083       .  S
C688        C689   1.405   1_556  A
C688        C691   1.498       .  S
C689        C690   1.401       .  A
C689        H697   1.083       .  S
C690        H698   1.084       .  S
C691        H699   1.087       .  S
C691        C692   1.353       .  D
C692        H700   1.086       .  S
C693        H701   1.087   1_556  S
C693        C694   1.360       .  D
C694        H702   1.084       .  S
C703        C704   1.408       .  A
C703        C708   1.407       .  A
C703        C711   1.497       .  S
C704        C705   1.411       .  A
C704        H713   1.082       .  S
C705        C706   1.410       .  A
C705        H714   1.083       .  S
C706        C707   1.404       .  A
C706        C709   1.499       .  S
C707        C708   1.398       .  A
C707        H715   1.082       .  S
C708        H716   1.084       .  S
C709        H717   1.086       .  S
C709        C710   1.354       .  D
C710        H718   1.086       .  S
C711        H719   1.088       .  S
C711        C712   1.355       .  D
C712        H720   1.085       .  S
C721        C722   1.408       .  A
C721        C726   1.405       .  A
C721        C729   1.492       .  S
C722        C723   1.406       .  A
C722        H731   1.081       .  S
C723        C724   1.412       .  A
C723        H732   1.081       .  S
C724        C725   1.401       .  A
C724        C727   1.497       .  S
C725        C726   1.397       .  A
C725        H733   1.081       .  S
C726        H734   1.084       .  S
C727        H735   1.087       .  S
C727        C728   1.345       .  D
C728        H736   1.085       .  S
C729        H737   1.088       .  S
C729        C730   1.354       .  D
C730        H738   1.084       .  S
C739        C740   1.404       .  A
C739        C744   1.412       .  A
C739        C747   1.502       .  S
C740        C741   1.400       .  A
C740        H749   1.084       .  S
C741        C742   1.407       .  A
C741        H750   1.084       .  S
C742        C743   1.408       .  A
C742        C745   1.498       .  S
C743        C744   1.408       .  A
C743        H751   1.081       .  S
C744        H752   1.080       .  S
C745        H753   1.086       .  S
C745        C746   1.357       .  D
C746        H754   1.084       .  S
C747        H755   1.087       .  S
C747        C748   1.352       .  D
C748        H756   1.083       .  S
C757        C758   1.401       .  A
C757        C762   1.410       .  A
C757        C765   1.479       .  S
C758        C759   1.392       .  A
C758        H767   1.083       .  S
C759        C760   1.404       .  A
C759        H768   1.083       .  S
C760        C761   1.399       .  A
C760        C763   1.470       .  S
C761        C762   1.395       .  A
C761        H769   1.084       .  S
C762        H770   1.082       .  S
C763        H771   1.088       .  S
C763        C764   1.342       .  D
C764        H772   1.086       .  S
C765        H773   1.084       .  S
C765        C766   1.343       .  D
C766        H774   1.085       .  S
C775        C776   1.403       .  A
C775        C780   1.404       .  A
C775        C783   1.478       .  S
C776        C777   1.396       .  A
C776        H785   1.084       .  S
C777        C778   1.407       .  A
C777        H786   1.080       .  S
C778        C779   1.402       .  A
C778        C781   1.479       .  S
C779        C780   1.392       .  A
C779        H787   1.082       .  S
C780        H788   1.082       .  S
C781        H789   1.088       .  S
C781        C782   1.344       .  D
C782        H790   1.083       .  S
C783        H791   1.083       .  S
C783        C784   1.346       .  D
C784        H792   1.085       .  S
C793        C794   1.405       .  A
C793        C798   1.406       .  A
C793        C801   1.483       .  S
C794        C795   1.398       .  A
C794        H803   1.083       .  S
C795        C796   1.406       .  A
C795        H804   1.082       .  S
C796        C797   1.401       .  A
C796        C799   1.479       .  S
C797        C798   1.393       .  A
C797        H805   1.084       .  S
C798        H806   1.080       .  S
C799        H807   1.087       .  S
C799        C800   1.345       .  D
C800        H808   1.085       .  S
C801        H809   1.085       .  S
C801        C802   1.349       .  D
C802        H810   1.084       .  S
C811        C812   1.399       .  A
C811        C816   1.406       .  A
C811        C819   1.478       .  S
C812        C813   1.395       .  A
C812        H821   1.083       .  S
C813        C814   1.409       .  A
C813        H822   1.079       .  S
C814        C815   1.403       .  A
C814        C817   1.483       .  S
C815        C816   1.395       .  A
C815        H823   1.084       .  S
C816        H824   1.083       .  S
C817        H825   1.087       .  S
C817        C818   1.344       .  D
C818        H826   1.083       .  S
C819        H827   1.087       .  S
C819        C820   1.341       .  D
C820        H828   1.086       .  S
C829        C830   1.404       .  A
C829        C834   1.407       .  A
C829        C837   1.488       .  S
C830        C831   1.396       .  A
C830        H839   1.084       .  S
C831        C832   1.406       .  A
C831        H840   1.081       .  S
C832        C833   1.408       .  A
C832        C835   1.492       .  S
C833        C834   1.405       .  A
C833        H841   1.083       .  S
C834        H842   1.082       .  S
C835        H843   1.087       .  S
C835        C836   1.352       .  D
C836        H844   1.085       .  S
C837        H845   1.087       .  S
C837        C838   1.351       .  D
C838        H846   1.085       .  S
C847        C848   1.406       .  A
C847        C852   1.409       .  A
C847        C855   1.494       .  S
C848        C849   1.396       .  A
C848        H857   1.084       .  S
C849        C850   1.405       .  A
C849        H858   1.083       .  S
C850        C851   1.407       .  A
C850        C853   1.496       .  S
C851        C852   1.409       .  A
C851        H859   1.083       .  S
C852        H860   1.081       .  S
C853        H861   1.086       .  S
C853        C854   1.350       .  D
C854        H862   1.087       .  S
C855        H863   1.088       .  S
C855        C856   1.355       .  D
C856        H864   1.084       .  S
C865        C866   1.405       .  A
C865        C870   1.406       .  A
C865        C873   1.491       .  S
C866        C867   1.405       .  A
C866        H875   1.083       .  S
C867        C868   1.409       .  A
C867        H876   1.081       .  S
C868        C869   1.406       .  A
C868        C871   1.494       .  S
C869        C870   1.398       .  A
C869        H877   1.083       .  S
C870        H878   1.083       .  S
C871        H879   1.086       .  S
C871        C872   1.354       .  D
C872        H880   1.084       .  S
C873        H881   1.087       .  S
C873        C874   1.348       .  D
C874        H882   1.086       .  S
C883        C884   1.409       .  A
C883        C888   1.407       .  A
C883        C891   1.496       .  S
C884        C885   1.410       .  A
C884        H893   1.081       .  S
C885        C886   1.412       .  A
C885        H894   1.082       .  S
C886        C887   1.402       .  A
C886        C889   1.499       .  S
C887        C888   1.399       .  A
C887        H895   1.084       .  S
C888        H896   1.084       .  S
C889        H897   1.087       .  S
C889        C890   1.350       .  D
C890        H898   1.085       .  S
C891        H899   1.088       .  S
C891        C892   1.356       .  D
C892        H900   1.084       .  S
C901        C902   1.407       .  A
C901        C906   1.409   1_556  A
C901        C909   1.496   1_556  S
C902        C903   1.407       .  A
C902        H911   1.081       .  S
C903        C904   1.407       .  A
C903        H912   1.083       .  S
C904        C905   1.404   1_556  A
C904        C907   1.491       .  S
C905        C906   1.399       .  A
C905        H913   1.083       .  S
C906        H914   1.084       .  S
C907        H915   1.087       .  S
C907        C908   1.353       .  D
C908        H916   1.086       .  S
C909        H917   1.085       .  S
C909        C910   1.359   1_554  D
C910        H918   1.084       .  S
C919        C920   1.409       .  A
C919        C924   1.405       .  A
C919        C927   1.493       .  S
C920        C921   1.407       .  A
C920        H929   1.083       .  S
C921        C922   1.407       .  A
C921        H930   1.082       .  S
C922        C923   1.405       .  A
C922        C925   1.491       .  S
C923        C924   1.396       .  A
C923        H931   1.084       .  S
C924        H932   1.082       .  S
C925        H933   1.086       .  S
C925        C926   1.353       .  D
C926        H934   1.085       .  S
C927        H935   1.087       .  S
C927        C928   1.353       .  D
C928        H936   1.085       .  S
C937        C938   1.402       .  A
C937        C942   1.413       .  A
C937        C945   1.499       .  S
C938        C939   1.398       .  A
C938        H947   1.084       .  S
C939        C940   1.407       .  A
C939        H948   1.084       .  S
C940        C941   1.410       .  A
C940        C943   1.500       .  S
C941        C942   1.412       .  A
C941        H949   1.081       .  S
C942        H950   1.082       .  S
C943        H951   1.088       .  S
C943        C944   1.358       .  D
C944        H952   1.084       .  S
C945        H953   1.087       .  S
C945        C946   1.349       .  D
C946        H954   1.085       .  S
C955        C956   1.408       .  A
C955        C960   1.409       .  A
C955        C963   1.500       .  S
C956        C957   1.398       .  A
C956        H965   1.081   1_556  S
C957        C958   1.403       .  A
C957        H966   1.083   1_556  S
C958        C959   1.408       .  A
C958        C961   1.492       .  S
C959        C960   1.409       .  A
C959        H967   1.082       .  S
C960        H968   1.083       .  S
C961        H969   1.088   1_556  S
C961        C962   1.352       .  D
C962        H970   1.085       .  S
C963        H971   1.087       .  S
C963        C964   1.350       .  D
C964        H972   1.085       .  S
C973        C974   1.402       .  A
C973        C978   1.411       .  A
C973        C981   1.485       .  S
C974        C975   1.394       .  A
C974        H983   1.084       .  S
C975        C976   1.407       .  A
C975        H984   1.082       .  S
C976        C977   1.401       .  A
C976        C979   1.483       .  S
C977        C978   1.399       .  A
C977        H985   1.083       .  S
C978        H986   1.081       .  S
C979        H987   1.087       .  S
C979        C980   1.345       .  D
C980        H988   1.086       .  S
C981        H989   1.083       .  S
C981        C982   1.344       .  D
C982        H990   1.084       .  S
C991        C992   1.402       .  A
C991        C996   1.405       .  A
C991        C999   1.477       .  S
C992        C993   1.395       .  A
C992       H1001   1.084       .  S
C993        C994   1.406       .  A
C993       H1002   1.080       .  S
C994        C995   1.404       .  A
C994        C997   1.481       .  S
C995        C996   1.393       .  A
C995       H1003   1.084       .  S
C996       H1004   1.081       .  S
C997       H1005   1.087       .  S
C997        C998   1.349       .  D
C998       H1006   1.083       .  S
C999       H1007   1.086       .  S
C999       C1000   1.344       .  D
C1000      H1008   1.084       .  S
C1009      C1010   1.406       .  A
C1009      C1014   1.411       .  A
C1009      C1017   1.494       .  S
C1010      C1011   1.399       .  A
C1010      H1019   1.083       .  S
C1011      C1012   1.406       .  A
C1011      H1020   1.082       .  S
C1012      C1013   1.400       .  A
C1012      C1015   1.484       .  S
C1013      C1014   1.397       .  A
C1013      H1021   1.084       .  S
C1014      H1022   1.078       .  S
C1015      H1023   1.087       .  S
C1015      C1016   1.344       .  D
C1016      H1024   1.086       .  S
C1017      H1025   1.086       .  S
C1017      C1018   1.349       .  D
C1018      H1026   1.081       .  S
C1027      C1028   1.404       .  A
C1027      C1032   1.409       .  A
C1027      C1035   1.482       .  S
C1028      C1029   1.393       .  A
C1028      H1037   1.084       .  S
C1029      C1030   1.404       .  A
C1029      H1038   1.082       .  S
C1030      C1031   1.399       .  A
C1030      C1033   1.472       .  S
C1031      C1032   1.394       .  A
C1031      H1039   1.084       .  S
C1032      H1040   1.079       .  S
C1033      H1041   1.087       .  S
C1033      C1034   1.341       .  D
C1034      H1042   1.086       .  S
C1035      H1043   1.087       .  S
C1035      C1036   1.344       .  D
C1036      H1044   1.082       .  S
C1045      C1046   1.407   1_565  A
C1045      C1050   1.404       .  A
C1045      C1053   1.493       .  S
C1046      C1047   1.406   1_545  A
C1046      H1055   1.083       .  S
C1047      C1048   1.409       .  A
C1047      H1056   1.081   1_565  S
C1048      C1049   1.407       .  A
C1048      C1051   1.494       .  S
C1049      C1050   1.399       .  A
C1049      H1057   1.083       .  S
C1050      H1058   1.083       .  S
C1051      H1059   1.088       .  S
C1051      C1052   1.353       .  D
C1052      H1060   1.084   1_565  S
C1053      H1061   1.086       .  S
C1053      C1054   1.351       .  D
C1054      H1062   1.087       .  S
C1063      C1064   1.403       .  A
C1063      C1068   1.407       .  A
C1063      C1071   1.487       .  S
C1064      C1065   1.396       .  A
C1064      H1073   1.084       .  S
C1065      C1066   1.406       .  A
C1065      H1074   1.081       .  S
C1066      C1067   1.408       .  A
C1066      C1069   1.493       .  S
C1067      C1068   1.406       .  A
C1067      H1075   1.083       .  S
C1068      H1076   1.082   1_545  S
C1069      H1077   1.087       .  S
C1069      C1070   1.353       .  D
C1070      H1078   1.084       .  S
C1071      H1079   1.088       .  S
C1071      C1072   1.351       .  D
C1072      H1080   1.085       .  S
C1081      C1082   1.405       .  A
C1081      C1086   1.405   1_565  A
C1081      C1089   1.488       .  S
C1082      C1083   1.396       .  A
C1082      H1091   1.084       .  S
C1083      C1084   1.405   1_565  A
C1083      H1092   1.082       .  S
C1084      C1085   1.409       .  A
C1084      C1087   1.494       .  S
C1085      C1086   1.408       .  A
C1085      H1093   1.083       .  S
C1086      H1094   1.082       .  S
C1087      H1095   1.087       .  S
C1087      C1088   1.349   1_545  D
C1088      H1096   1.085       .  S
C1089      H1097   1.088       .  S
C1089      C1090   1.355   1_565  D
C1090      H1098   1.085       .  S
C1099      C1100   1.404       .  A
C1099      C1104   1.403       .  A
C1099      C1107   1.485       .  S
C1100      C1101   1.404       .  A
C1100      H1109   1.083       .  S
C1101      C1102   1.408       .  A
C1101      H1110   1.080       .  S
C1102      C1103   1.407       .  A
C1102      C1105   1.492       .  S
C1103      C1104   1.397       .  A
C1103      H1111   1.084       .  S
C1104      H1112   1.083       .  S
C1105      H1113   1.088       .  S
C1105      C1106   1.353       .  D
C1106      H1114   1.084       .  S
C1107      H1115   1.086       .  S
C1107      C1108   1.347       .  D
C1108      H1116   1.087       .  S
C1117      C1118   1.404       .  A
C1117      C1122   1.410       .  A
C1117      C1125   1.491       .  S
C1118      C1119   1.392       .  A
C1118      H1127   1.084       .  S
C1119      C1120   1.403       .  A
C1119      H1128   1.083       .  S
C1120      C1121   1.407       .  A
C1120      C1123   1.489       .  S
C1121      C1122   1.409       .  A
C1121      H1129   1.083       .  S
C1122      H1130   1.081       .  S
C1123      H1131   1.086       .  S
C1123      C1124   1.348       .  D
C1124      H1132   1.087       .  S
C1125      H1133   1.088       .  S
C1125      C1126   1.351       .  D
C1126      H1134   1.084       .  S
C1135      C1136   1.407       .  A
C1135      C1140   1.406       .  A
C1135      C1143   1.490       .  S
C1136      C1137   1.404       .  A
C1136      H1145   1.083       .  S
C1137      C1138   1.407       .  A
C1137      H1146   1.082       .  S
C1138      C1139   1.401       .  A
C1138      C1141   1.481       .  S
C1139      C1140   1.394       .  A
C1139      H1147   1.084       .  S
C1140      H1148   1.081       .  S
C1141      H1149   1.089       .  S
C1141      C1142   1.347       .  D
C1142      H1150   1.085       .  S
C1143      H1151   1.087       .  S
C1143      C1144   1.352       .  D
C1144      H1152   1.085       .  S
C1153      C1154   1.407       .  A
C1153      C1158   1.408       .  A
C1153      C1161   1.495       .  S
C1154      C1155   1.398       .  A
C1154      H1163   1.084       .  S
C1155      C1156   1.403       .  A
C1155      H1164   1.083       .  S
C1156      C1157   1.408       .  A
C1156      C1159   1.494       .  S
C1157      C1158   1.409       .  A
C1157      H1165   1.083       .  S
C1158      H1166   1.081       .  S
C1159      H1167   1.086       .  S
C1159      C1160   1.353       .  D
C1160      H1168   1.086       .  S
C1161      H1169   1.088       .  S
C1161      C1162   1.356       .  D
C1162      H1170   1.085       .  S
C1171      C1172   1.403       .  A
C1171      C1176   1.411   1_565  A
C1171      C1179   1.485       .  S
C1172      C1173   1.394       .  A
C1172      H1181   1.084       .  S
C1173      C1174   1.406       .  A
C1173      H1182   1.082       .  S
C1174      C1175   1.398   1_565  A
C1174      C1177   1.478       .  S
C1175      C1176   1.395       .  A
C1175      H1183   1.083       .  S
C1176      H1184   1.078       .  S
C1177      H1185   1.087       .  S
C1177      C1178   1.341       .  D
C1178      H1186   1.086       .  S
C1179      H1187   1.087       .  S
C1179      C1180   1.345   1_565  D
C1180      H1188   1.081       .  S
C1189      C1190   1.400       .  A
C1189      C1194   1.407       .  A
C1189      C1197   1.479       .  S
C1190      C1191   1.397       .  A
C1190      H1199   1.083       .  S
C1191      C1192   1.410       .  A
C1191      H1200   1.081       .  S
C1192      C1193   1.402       .  A
C1192      C1195   1.484       .  S
C1193      C1194   1.394       .  A
C1193      H1201   1.084       .  S
C1194      H1202   1.082       .  S
C1195      H1203   1.083       .  S
C1195      C1196   1.346       .  D
C1196      H1204   1.084       .  S
C1197      H1205   1.087       .  S
C1197      C1198   1.341       .  D
C1198      H1206   1.086       .  S
C1207      C1208   1.399       .  A
C1207      C1212   1.402       .  A
C1207      C1215   1.470       .  S
C1208      C1209   1.394       .  A
C1208      H1217   1.084       .  S
C1209      C1210   1.411       .  A
C1209      H1218   1.079       .  S
C1210      C1211   1.402       .  A
C1210      C1213   1.481       .  S
C1211      C1212   1.392       .  A
C1211      H1219   1.083       .  S
C1212      H1220   1.083       .  S
C1213      H1221   1.088       .  S
C1213      C1214   1.340       .  D
C1214      H1222   1.082       .  S
C1215      H1223   1.083       .  S
C1215      C1216   1.345       .  D
C1216      H1224   1.087       .  S
C1225      C1226   1.405       .  A
C1225      C1230   1.405       .  A
C1225      C1233   1.493       .  S
C1226      C1227   1.406       .  A
C1226      H1235   1.083   1_545  S
C1227      C1228   1.408       .  A
C1227      H1236   1.080   1_545  S
C1228      C1229   1.407       .  A
C1228      C1231   1.494       .  S
C1229      C1230   1.399       .  A
C1229      H1237   1.084       .  S
C1230      H1238   1.083       .  S
C1231      H1239   1.088       .  S
C1231      C1232   1.354       .  D
C1232      H1240   1.084   1_545  S
C1233      H1241   1.086       .  S
C1233      C1234   1.349       .  D
C1234      H1242   1.087       .  S
C1243      C1244   1.403       .  A
C1243      C1248   1.407       .  A
C1243      C1251   1.479       .  S
C1244      C1245   1.396       .  A
C1244      H1253   1.083       .  S
C1245      C1246   1.404       .  A
C1245      H1254   1.083       .  S
C1246      C1247   1.400       .  A
C1246      C1249   1.474       .  S
C1247      C1248   1.395       .  A
C1247      H1255   1.083   1_565  S
C1248      H1256   1.082   1_565  S
C1249      H1257   1.087       .  S
C1249      C1250   1.342       .  D
C1250      H1258   1.087       .  S
C1251      H1259   1.084       .  S
C1251      C1252   1.346       .  D
C1252      H1260   1.086       .  S
C1261      C1262   1.406       .  A
C1261      C1266   1.405       .  A
C1261      C1269   1.491       .  S
C1262      C1263   1.405       .  A
C1262      H1271   1.083       .  S
C1263      C1264   1.408       .  A
C1263      H1272   1.081       .  S
C1264      C1265   1.404       .  A
C1264      C1267   1.488       .  S
C1265      C1266   1.396       .  A
C1265      H1273   1.084       .  S
C1266      H1274   1.082       .  S
C1267      H1275   1.087       .  S
C1267      C1268   1.350       .  D
C1268      H1276   1.084       .  S
C1269      H1277   1.086       .  S
C1269      C1270   1.350       .  D
C1270      H1278   1.087       .  S
C1279      C1280   1.409       .  A
C1279      C1284   1.408       .  A
C1279      C1287   1.499       .  S
C1280      C1281   1.408       .  A
C1280      H1289   1.083       .  S
C1281      C1282   1.408       .  A
C1281      H1290   1.083       .  S
C1282      C1283   1.401       .  A
C1282      C1285   1.489       .  S
C1283      C1284   1.397       .  A
C1283      H1291   1.083       .  S
C1284      H1292   1.081       .  S
C1285      H1293   1.088       .  S
C1285      C1286   1.349       .  D
C1286      H1294   1.086       .  S
C1287      H1295   1.087       .  S
C1287      C1288   1.350       .  D
C1288      H1296   1.084       .  S
C1297      C1298   1.410       .  A
C1297      C1302   1.408       .  A
C1297      C1305   1.502       .  S
C1298      C1299   1.407       .  A
C1298      H1307   1.083       .  S
C1299      C1300   1.407       .  A
C1299      H1308   1.081       .  S
C1300      C1301   1.406       .  A
C1300      C1303   1.495       .  S
C1301      C1302   1.399       .  A
C1301      H1309   1.084       .  S
C1302      H1310   1.080       .  S
C1303      H1311   1.087       .  S
C1303      C1304   1.356       .  D
C1304      H1312   1.084       .  S
C1305      H1313   1.087       .  S
C1305      C1306   1.354       .  D
C1306      H1314   1.083       .  S
C1315      C1316   1.405       .  A
C1315      C1320   1.403       .  A
C1315      C1323   1.487       .  S
C1316      C1317   1.407       .  A
C1316      H1325   1.083       .  S
C1317      C1318   1.409       .  A
C1317      H1326   1.081       .  S
C1318      C1319   1.405       .  A
C1318      C1321   1.490       .  S
C1319      C1320   1.394       .  A
C1319      H1327   1.084       .  S
C1320      H1328   1.083       .  S
C1321      H1329   1.088       .  S
C1321      C1322   1.351       .  D
C1322      H1330   1.084       .  S
C1323      H1331   1.086       .  S
C1323      C1324   1.348       .  D
C1324      H1332   1.087       .  S
C1333      C1334   1.404       .  A
C1333      C1338   1.407       .  A
C1333      C1341   1.490       .  S
C1334      C1335   1.397   1_565  A
C1334      H1343   1.084       .  S
C1335      C1336   1.407       .  A
C1335      H1344   1.080       .  S
C1336      C1337   1.410       .  A
C1336      C1339   1.499       .  S
C1337      C1338   1.406   1_545  A
C1337      H1345   1.083       .  S
C1338      H1346   1.082       .  S
C1339      H1347   1.087       .  S
C1339      C1340   1.357   1_545  D
C1340      H1348   1.083       .  S
C1341      H1349   1.087       .  S
C1341      C1342   1.352       .  D
C1342      H1350   1.085   1_565  S
C1351      C1352   1.402   1_545  A
C1351      C1356   1.408       .  A
C1351      C1359   1.485   1_545  S
C1352      C1353   1.398       .  A
C1352      H1361   1.083       .  S
C1353      C1354   1.408   1_565  A
C1353      H1362   1.083       .  S
C1354      C1355   1.403       .  A
C1354      C1357   1.489       .  S
C1355      C1356   1.405       .  A
C1355      H1363   1.083       .  S
C1356      H1364   1.083       .  S
C1357      H1365   1.086       .  S
C1357      C1358   1.340       .  D
C1358      H1366   1.088       .  S
C1359      H1367   1.088       .  S
C1359      C1360   1.350   1_565  D
C1360      H1368   1.086       .  S
C1369      C1370   1.406       .  A
C1369      C1374   1.405       .  A
C1369      C1377   1.487       .  S
C1370      C1371   1.404       .  A
C1370      H1379   1.083   1_565  S
C1371      C1372   1.408       .  A
C1371      H1380   1.081   1_565  S
C1372      C1373   1.403       .  A
C1372      C1375   1.486       .  S
C1373      C1374   1.392       .  A
C1373      H1381   1.084       .  S
C1374      H1382   1.081       .  S
C1375      H1383   1.087       .  S
C1375      C1376   1.350       .  D
C1376      H1384   1.083   1_565  S
C1377      H1385   1.087       .  S
C1377      C1378   1.349       .  D
C1378      H1386   1.085       .  S
C1387      C1388   1.401       .  A
C1387      C1392   1.411   1_545  A
C1387      C1395   1.494       .  S
C1388      C1389   1.395       .  A
C1388      H1397   1.084       .  S
C1389      C1390   1.405       .  A
C1389      H1398   1.084       .  S
C1390      C1391   1.411   1_545  A
C1390      C1393   1.495       .  S
C1391      C1392   1.413       .  A
C1391      H1399   1.082       .  S
C1392      H1400   1.082       .  S
C1393      H1401   1.088       .  S
C1393      C1394   1.354       .  D
C1394      H1402   1.085   1_545  S
C1395      H1403   1.087       .  S
C1395      C1396   1.349   1_545  D
C1396      H1404   1.086       .  S
C1405      C1406   1.402       .  A
C1405      C1410   1.408       .  A
C1405      C1413   1.488       .  S
C1406      C1407   1.397       .  A
C1406      H1415   1.083       .  S
C1407      C1408   1.410       .  A
C1407      H1416   1.079       .  S
C1408      C1409   1.405       .  A
C1408      C1411   1.491       .  S
C1409      C1410   1.399       .  A
C1409      H1417   1.084       .  S
C1410      H1418   1.081       .  S
C1411      H1419   1.086       .  S
C1411      C1412   1.349       .  D
C1412      H1420   1.082       .  S
C1413      H1421   1.087       .  S
C1413      C1414   1.346       .  D
C1414      H1422   1.085       .  S
C1423      C1424   1.399       .  A
C1423      C1428   1.411       .  A
C1423      C1431   1.478       .  S
C1424      C1425   1.391       .  A
C1424      H1433   1.084       .  S
C1425      C1426   1.405       .  A
C1425      H1434   1.083       .  S
C1426      C1427   1.399       .  A
C1426      C1429   1.474       .  S
C1427      C1428   1.398       .  A
C1427      H1435   1.084       .  S
C1428      H1436   1.081       .  S
C1429      H1437   1.087       .  S
C1429      C1430   1.341       .  D
C1430      H1438   1.087       .  S
C1431      H1439   1.086       .  S
C1431      C1432   1.342       .  D
C1432      H1440   1.086       .  S
C1441      C1442   1.401       .  A
C1441      C1446   1.409       .  A
C1441      C1449   1.481       .  S
C1442      C1443   1.395       .  A
C1442      H1451   1.083       .  S
C1443      C1444   1.407       .  A
C1443      H1452   1.083       .  S
C1444      C1445   1.399       .  A
C1444      C1447   1.476       .  S
C1445      C1446   1.395       .  A
C1445      H1453   1.083       .  S
C1446      H1454   1.082       .  S
C1447      H1455   1.087       .  S
C1447      C1448   1.341       .  D
C1448      H1456   1.086       .  S
C1449      H1457   1.084       .  S
C1449      C1450   1.345       .  D
C1450      H1458   1.086       .  S
C1459      C1460   1.402       .  A
C1459      C1464   1.405       .  A
C1459      C1467   1.479       .  S
C1460      C1461   1.397       .  A
C1460      H1469   1.083       .  S
C1461      C1462   1.407       .  A
C1461      H1470   1.080       .  S
C1462      C1463   1.405       .  A
C1462      C1465   1.484       .  S
C1463      C1464   1.396       .  A
C1463      H1471   1.084       .  S
C1464      H1472   1.082       .  S
C1465      H1473   1.087       .  S
C1465      C1466   1.350       .  D
C1466      H1474   1.084       .  S
C1467      H1475   1.086       .  S
C1467      C1468   1.345       .  D
C1468      H1476   1.086       .  S
C1477      C1478   1.405       .  A
C1477      C1482   1.407   1_455  A
C1477      C1485   1.486       .  S
C1478      C1479   1.397       .  A
C1478      H1487   1.084       .  S
C1479      C1480   1.405       .  A
C1479      H1488   1.083       .  S
C1480      C1481   1.404   1_455  A
C1480      C1483   1.486       .  S
C1481      C1482   1.403       .  A
C1481      H1489   1.083       .  S
C1482      H1490   1.082       .  S
C1483      H1491   1.087   1_455  S
C1483      C1484   1.347       .  D
C1484      H1492   1.087       .  S
C1485      H1493   1.088       .  S
C1485      C1486   1.350   1_455  D
C1486      H1494   1.085       .  S
C1495      C1496   1.404       .  A
C1495      C1500   1.410   1_655  A
C1495      C1503   1.492       .  S
C1496      C1497   1.394       .  A
C1496      H1505   1.084       .  S
C1497      C1498   1.406   1_655  A
C1497      H1506   1.082       .  S
C1498      C1499   1.406       .  A
C1498      C1501   1.491       .  S
C1499      C1500   1.406       .  A
C1499      H1507   1.083       .  S
C1500      H1508   1.081       .  S
C1501      H1509   1.086       .  S
C1501      C1502   1.348       .  D
C1502      H1510   1.086       .  S
C1503      H1511   1.086       .  S
C1503      C1504   1.351       .  D
C1504      H1512   1.084   1_655  S
C1513      C1514   1.406       .  A
C1513      C1518   1.407       .  A
C1513      C1521   1.495       .  S
C1514      C1515   1.401       .  A
C1514      H1523   1.083       .  S
C1515      C1516   1.407       .  A
C1515      H1524   1.081       .  S
C1516      C1517   1.411       .  A
C1516      C1519   1.503       .  S
C1517      C1518   1.409       .  A
C1517      H1525   1.083       .  S
C1518      H1526   1.082       .  S
C1519      H1527   1.087       .  S
C1519      C1520   1.356       .  D
C1520      H1528   1.084       .  S
C1521      H1529   1.088       .  S
C1521      C1522   1.358       .  D
C1522      H1530   1.085       .  S
C1531      C1532   1.406       .  A
C1531      C1536   1.407       .  A
C1531      C1539   1.496       .  S
C1532      C1533   1.397       .  A
C1532      H1541   1.083       .  S
C1533      C1534   1.405       .  A
C1533      H1542   1.080       .  S
C1534      C1535   1.411       .  A
C1534      C1537   1.498       .  S
C1535      C1536   1.408       .  A
C1535      H1543   1.083       .  S
C1536      H1544   1.082       .  S
C1537      H1545   1.087       .  S
C1537      C1538   1.355       .  D
C1538      H1546   1.083       .  S
C1539      H1547   1.087       .  S
C1539      C1540   1.356       .  D
C1540      H1548   1.085       .  S
C1549      C1550   1.406       .  A
C1549      C1554   1.409       .  A
C1549      C1557   1.495       .  S
C1550      C1551   1.396       .  A
C1550      H1559   1.083       .  S
C1551      C1552   1.403       .  A
C1551      H1560   1.082       .  S
C1552      C1553   1.409       .  A
C1552      C1555   1.496       .  S
C1553      C1554   1.410       .  A
C1553      H1561   1.083   1_655  S
C1554      H1562   1.081   1_655  S
C1555      H1563   1.086       .  S
C1555      C1556   1.355       .  D
C1556      H1564   1.086       .  S
C1557      H1565   1.088       .  S
C1557      C1558   1.353       .  D
C1558      H1566   1.084   1_655  S
C1567      C1568   1.405       .  A
C1567      C1572   1.410       .  A
C1567      C1575   1.494       .  S
C1568      C1569   1.394       .  A
C1568      H1577   1.084       .  S
C1569      C1570   1.405       .  A
C1569      H1578   1.082       .  S
C1570      C1571   1.408       .  A
C1570      C1573   1.497       .  S
C1571      C1572   1.410       .  A
C1571      H1579   1.083   1_655  S
C1572      H1580   1.081   1_655  S
C1573      H1581   1.086       .  S
C1573      C1574   1.351       .  D
C1574      H1582   1.086       .  S
C1575      H1583   1.088       .  S
C1575      C1576   1.354       .  D
C1576      H1584   1.084   1_655  S
C1585      C1586   1.405       .  A
C1585      C1590   1.409       .  A
C1585      C1593   1.489       .  S
C1586      C1587   1.396       .  A
C1586      H1595   1.084       .  S
C1587      C1588   1.404       .  A
C1587      H1596   1.082       .  S
C1588      C1589   1.406       .  A
C1588      C1591   1.489       .  S
C1589      C1590   1.404       .  A
C1589      H1597   1.083       .  S
C1590      H1598   1.081       .  S
C1591      H1599   1.086       .  S
C1591      C1592   1.350       .  D
C1592      H1600   1.086       .  S
C1593      H1601   1.088       .  S
C1593      C1594   1.348       .  D
C1594      H1602   1.084       .  S
C1603      C1604   1.408       .  A
C1603      C1608   1.406       .  A
C1603      C1611   1.493       .  S
C1604      C1605   1.409       .  A
C1604      H1613   1.082       .  S
C1605      C1606   1.408       .  A
C1605      H1614   1.083       .  S
C1606      C1607   1.403       .  A
C1606      C1609   1.489       .  S
C1607      C1608   1.396       .  A
C1607      H1615   1.083       .  S
C1608      H1616   1.084       .  S
C1609      H1617   1.087       .  S
C1609      C1610   1.350       .  D
C1610      H1618   1.087       .  S
C1611      H1619   1.087       .  S
C1611      C1612   1.354       .  D
C1612      H1620   1.085       .  S
C1621      C1622   1.405       .  A
C1621      C1626   1.409       .  A
C1621      C1629   1.495       .  S
C1622      C1623   1.398       .  A
C1622      H1631   1.084       .  S
C1623      C1624   1.405       .  A
C1623      H1632   1.082       .  S
C1624      C1625   1.411       .  A
C1624      C1627   1.503       .  S
C1625      C1626   1.412       .  A
C1625      H1633   1.083       .  S
C1626      H1634   1.082       .  S
C1627      H1635   1.086       .  S
C1627      C1628   1.356       .  D
C1628      H1636   1.086       .  S
C1629      H1637   1.088       .  S
C1629      C1630   1.353       .  D
C1630      H1638   1.085       .  S
C1639      C1640   1.405       .  A
C1639      C1644   1.408       .  A
C1639      C1647   1.494       .  S
C1640      C1641   1.400       .  A
C1640      H1649   1.083       .  S
C1641      C1642   1.408       .  A
C1641      H1650   1.083       .  S
C1642      C1643   1.405       .  A
C1642      C1645   1.496       .  S
C1643      C1644   1.406       .  A
C1643      H1651   1.083       .  S
C1644      H1652   1.082       .  S
C1645      H1653   1.086       .  S
C1645      C1646   1.345       .  D
C1646      H1654   1.087       .  S
C1647      H1655   1.087       .  S
C1647      C1648   1.353       .  D
C1648      H1656   1.085       .  S
C1657      C1658   1.402       .  A
C1657      C1662   1.410       .  A
C1657      C1665   1.485       .  S
C1658      C1659   1.391       .  A
C1658      H1667   1.084       .  S
C1659      C1660   1.405       .  A
C1659      H1668   1.082       .  S
C1660      C1661   1.405       .  A
C1660      C1663   1.486       .  S
C1661      C1662   1.404       .  A
C1661      H1669   1.083       .  S
C1662      H1670   1.081       .  S
C1663      H1671   1.087       .  S
C1663      C1664   1.346       .  D
C1664      H1672   1.086       .  S
C1665      H1673   1.087       .  S
C1665      C1666   1.348       .  D
C1666      H1674   1.084       .  S
C1675      C1676   1.409       .  A
C1675      C1680   1.406       .  A
C1675      C1683   1.496       .  S
C1676      C1677   1.412       .  A
C1676      H1685   1.082       .  S
C1677      C1678   1.413       .  A
C1677      H1686   1.082       .  S
C1678      C1679   1.400       .  A
C1678      C1681   1.495       .  S
C1679      C1680   1.395       .  A
C1679      H1687   1.084       .  S
C1680      H1688   1.084       .  S
C1681      H1689   1.087       .  S
C1681      C1682   1.346       .  D
C1682      H1690   1.086       .  S
C1683      H1691   1.087       .  S
C1683      C1684   1.356       .  D
C1684      H1692   1.085       .  S
C1693      C1694   1.406       .  A
C1693      C1698   1.401       .  A
C1693      C1701   1.480       .  S
C1694      C1695   1.400       .  A
C1694      H1703   1.082       .  S
C1695      C1696   1.410       .  A
C1695      H1704   1.080       .  S
C1696      C1697   1.402       .  A
C1696      C1699   1.485       .  S
C1697      C1698   1.394       .  A
C1697      H1705   1.084       .  S
C1698      H1706   1.083       .  S
C1699      H1707   1.087       .  S
C1699      C1700   1.343       .  D
C1700      H1708   1.084       .  S
C1701      H1709   1.088       .  S
C1701      C1702   1.348       .  D
C1702      H1710   1.085       .  S
C1711      C1712   1.405       .  A
C1711      C1716   1.407       .  A
C1711      C1719   1.489       .  S
C1712      C1713   1.398       .  A
C1712      H1721   1.084       .  S
C1713      C1714   1.407       .  A
C1713      H1722   1.081       .  S
C1714      C1715   1.407       .  A
C1714      C1717   1.493       .  S
C1715      C1716   1.404       .  A
C1715      H1723   1.083       .  S
C1716      H1724   1.081       .  S
C1717      H1725   1.087       .  S
C1717      C1718   1.350       .  D
C1718      H1726   1.085       .  S
C1719      H1727   1.089       .  S
C1719      C1720   1.353       .  D
C1720      H1728   1.084       .  S
C1729      C1730   1.399       .  A
C1729      C1734   1.409       .  A
C1729      C1737   1.485       .  S
C1730      C1731   1.396       .  A
C1730      H1739   1.083       .  S
C1731      C1732   1.409       .  A
C1731      H1740   1.081       .  S
C1732      C1733   1.405       .  A
C1732      C1735   1.490       .  S
C1733      C1734   1.401       .  A
C1733      H1741   1.083       .  S
C1734      H1742   1.082       .  S
C1735      H1743   1.087       .  S
C1735      C1736   1.348   1_655  D
C1736      H1744   1.084       .  S
C1737      H1745   1.086       .  S
C1737      C1738   1.344       .  D
C1738      H1746   1.086       .  S
C1747      C1748   1.400       .  A
C1747      C1752   1.406       .  A
C1747      C1755   1.480       .  S
C1748      C1749   1.397       .  A
C1748      H1757   1.083       .  S
C1749      C1750   1.411       .  A
C1749      H1758   1.079       .  S
C1750      C1751   1.405       .  A
C1750      C1753   1.488       .  S
C1751      C1752   1.394       .  A
C1751      H1759   1.084       .  S
C1752      H1760   1.082       .  S
C1753      H1761   1.083       .  S
C1753      C1754   1.348       .  D
C1754      H1762   1.083       .  S
C1755      H1763   1.088       .  S
C1755      C1756   1.346       .  D
C1756      H1764   1.086       .  S
C1765      C1766   1.405       .  A
C1765      C1770   1.409       .  A
C1765      C1773   1.487       .  S
C1766      C1767   1.396       .  A
C1766      H1775   1.084   1_455  S
C1767      C1768   1.405       .  A
C1767      H1776   1.082   1_455  S
C1768      C1769   1.401       .  A
C1768      C1771   1.479       .  S
C1769      C1770   1.396       .  A
C1769      H1777   1.084       .  S
C1770      H1778   1.079       .  S
C1771      H1779   1.087       .  S
C1771      C1772   1.342       .  D
C1772      H1780   1.085       .  S
C1773      H1781   1.085   1_455  S
C1773      C1774   1.349       .  D
C1774      H1782   1.082       .  S
C1783      C1784   1.407       .  A
C1783      C1788   1.409   1_455  A
C1783      C1791   1.496       .  S
C1784      C1785   1.398       .  A
C1784      H1793   1.083       .  S
C1785      C1786   1.404       .  A
C1785      H1794   1.083       .  S
C1786      C1787   1.408   1_455  A
C1786      C1789   1.494       .  S
C1787      C1788   1.408       .  A
C1787      H1795   1.083       .  S
C1788      H1796   1.081       .  S
C1789      H1797   1.086   1_455  S
C1789      C1790   1.352       .  D
C1790      H1798   1.087       .  S
C1791      H1799   1.088       .  S
C1791      C1792   1.354   1_455  D
C1792      H1800   1.084       .  S
C1801      C1802   1.405   1_655  A
C1801      C1806   1.406       .  A
C1801      C1809   1.490   1_655  S
C1802      C1803   1.402       .  A
C1802      H1811   1.083       .  S
C1803      C1804   1.408   1_455  A
C1803      H1812   1.082       .  S
C1804      C1805   1.408       .  A
C1804      C1807   1.497       .  S
C1805      C1806   1.406       .  A
C1805      H1813   1.083       .  S
C1806      H1814   1.083       .  S
C1807      H1815   1.087       .  S
C1807      C1808   1.348   1_655  D
C1808      H1816   1.086       .  S
C1809      H1817   1.088       .  S
C1809      C1810   1.353   1_455  D
C1810      H1818   1.086       .  S
C1819      C1820   1.404       .  A
C1819      C1824   1.410       .  A
C1819      C1827   1.488       .  S
C1820      C1821   1.397       .  A
C1820      H1829   1.084       .  S
C1821      C1822   1.407       .  A
C1821      H1830   1.082       .  S
C1822      C1823   1.399       .  A
C1822      C1825   1.481       .  S
C1823      C1824   1.395       .  A
C1823      H1831   1.084       .  S
C1824      H1832   1.079   1_455  S
C1825      H1833   1.087       .  S
C1825      C1826   1.343       .  D
C1826      H1834   1.086       .  S
C1827      H1835   1.085       .  S
C1827      C1828   1.347       .  D
C1828      H1836   1.082       .  S
