geometry optimzed in LAMMPS
_audit_creation_date              2020-11-30 
_audit_creation_method            'lammps2cif' 
_symmetry_space_group_name_H-M    'P1' 
_symmetry_Int_Tables_number       1 
_symmetry_cell_setting            triclinic 
loop_ 
_symmetry_equiv_pos_as_xyz 
  x,y,z 
_cell_length_a                    40.15720772 
_cell_length_b                    40.40079420247567 
_cell_length_c                    39.88705953328 
_cell_angle_alpha                 88.89945527644292 
_cell_angle_beta                  90.15785117972699 
_cell_angle_gamma                 89.64268347927913 
loop_ 
_atom_site_label 
_atom_site_type_symbol 
_atom_site_fract_x 
_atom_site_fract_y 
_atom_site_fract_z 
_atom_site_charge 
O1          O  0.50988783  0.18532683  0.25898820    -0.81100
O2          O  0.45225946  0.07634365  0.16987371    -0.65800
O3          O  0.47291632  0.16102797  0.20433445    -1.12400
C4          C  0.37765860  0.13992639  0.26905751     1.05800
O5          O  0.40101899  0.09368815  0.15894884    -0.79000
O6          O  0.38040903  0.15500134  0.18067435    -0.66600
Ni7        Ni  0.51768842  0.17394038  0.21252576     1.34900
C8          C  0.38927250  0.18313063  0.19129491     0.84500
O9          O  0.49982519  0.11938387  0.15488115    -0.79600
O10         O  0.52988870  0.16411239  0.16667508    -0.89800
C11         C  0.42389101  0.07181050  0.15665669     0.84100
O12         O  0.53421277  0.13174633  0.22729419    -0.68000
O13         O  0.36695792  0.12680208  0.24224960    -0.87300
C14         C  0.52186694  0.10292008  0.22961665     0.84900
C15         C  0.52321236  0.13945151  0.14822858     1.06500
H16         H  0.43332078  0.09941202  0.23401748     0.38300
O17         O  0.42940178  0.11742799  0.21819723    -1.10000
O18         O  0.41077855  0.18655173  0.21452974    -0.66600
Ni19       Ni  0.44062572  0.15731255  0.23962884     1.26300
O20         O  0.49321051  0.09549977  0.21826495    -0.66900
O21         O  0.40694916  0.15131121  0.27283935    -0.79200
C22         C  0.48498816  0.19778649  0.27418890     0.84300
O23         O  0.45547135  0.19558437  0.26287565    -0.66300
Ni24       Ni  0.38567375  0.11171383  0.20093846     1.27400
Ni25       Ni  0.46442156  0.11839662  0.18660061     1.26100
H26         H  0.46469572  0.17676747  0.18789770     0.38800
O27         O  0.17891279  0.23625092  0.51144821    -0.81100
O28         O  0.06144097  0.15506035  0.45807640    -0.65800
O29         O  0.14947233  0.18543635  0.47484926    -1.12400
C30         C  0.13272898  0.24690535  0.37709023     1.05800
O31         O  0.07975922  0.14171384  0.40814268    -0.79000
O32         O  0.14309337  0.15739787  0.39300168    -0.66600
Ni33       Ni  0.16642820  0.19086670  0.51871547     1.34900
C34         C  0.17128400  0.17023007  0.39826576     0.84500
O35         O  0.10729673  0.13691973  0.50395405    -0.79600
O36         O  0.15619633  0.14560375  0.52960639    -0.89800
C37         C  0.05664645  0.14176579  0.42985897     0.84100
O38         O  0.12596058  0.20580174  0.53830807    -0.68000
O39         O  0.12107560  0.21892979  0.36830865    -0.87300
C40         C  0.09670253  0.21134160  0.52726466     0.84900
C41         C  0.13055178  0.12813992  0.52398344     1.06500
H42         H  0.08631264  0.21634019  0.43517695     0.38300
O43         O  0.10446792  0.20075538  0.43255883    -1.10000
O44         O  0.17391424  0.19759857  0.41287843    -0.66600
Ni45       Ni  0.14542469  0.22130375  0.44266826     1.26300
O46         O  0.08630415  0.20158131  0.49878483    -0.66900
O47         O  0.13945590  0.25383387  0.40756400    -0.79200
C48         C  0.19096781  0.25146621  0.48611662     0.84300
O49         O  0.18513655  0.24304348  0.45621163    -0.66300
Ni50       Ni  0.10130169  0.18069573  0.39007868     1.27400
Ni51       Ni  0.10539768  0.16957347  0.46861666     1.26100
H52         H  0.16362291  0.16857547  0.46561780     0.38800
O53         O  0.26497139  0.50754559  0.06890851    -0.81100
O54         O  0.20573286  0.41926984  0.18038457    -0.65800
O55         O  0.22758621  0.45397985  0.09399495    -1.12400
C56         C  0.12968501  0.51597350  0.11082101     1.05800
O57         O  0.15704404  0.40643724  0.15923755    -0.79000
O58         O  0.13982047  0.42746591  0.09686734    -0.66600
Ni59       Ni  0.27247599  0.46135999  0.08115587     1.34900
C60         C  0.14887903  0.43916052  0.06865436     0.84500
O61         O  0.25419973  0.40425223  0.13793489    -0.79600
O62         O  0.28410916  0.41560533  0.09178040    -0.89800
C63         C  0.17844072  0.40384872  0.18277807     0.84100
O64         O  0.28857356  0.47463560  0.12391878    -0.68000
O65         O  0.11988289  0.48762349  0.12165251    -0.87300
C66         C  0.27567639  0.47819790  0.15273369     0.84900
C67         C  0.27704229  0.39727480  0.11722136     1.06500
H68         H  0.18530650  0.48186647  0.15516659     0.38300
O69         O  0.18294277  0.46675534  0.13682277    -1.10000
O70         O  0.16706300  0.46475190  0.06591541    -0.66600
Ni71       Ni  0.19480979  0.48900924  0.09658543     1.26300
O72         O  0.24669458  0.46758996  0.16018958    -0.66900
O73         O  0.15979385  0.52149129  0.10177633    -0.79200
C74         C  0.24031408  0.52349583  0.05617518     0.84300
O75         O  0.21059057  0.51304052  0.05814464    -0.66300
Ni76       Ni  0.14012404  0.44757315  0.13973053     1.27400
Ni77       Ni  0.21866953  0.43607528  0.13757321     1.26100
H78         H  0.21964949  0.43780082  0.07841641     0.38800
O79         O  0.02563516  0.31837742  0.75026333    -0.81100
O80         O  0.96869922  0.42137682  0.84333989    -0.65800
O81         O  0.98869405  0.33796198  0.80616567    -1.12400
C82         C  0.89108158  0.35540269  0.74511371     1.05800
O83         O  0.91681026  0.40561040  0.85354644    -0.79000
O84         O  0.90281492  0.34070518  0.83482974    -0.66600
Ni85       Ni  0.03313850  0.32461176  0.79758357     1.34900
C86         C  0.90964832  0.31342905  0.82067873     0.84500
O87         O  0.01573364  0.37581226  0.85786468    -0.79600
O88         O  0.04419810  0.32987620  0.84422136    -0.89800
C89         C  0.94011710  0.42693440  0.85552563     0.84100
O90         O  0.05131573  0.36711119  0.78759580    -0.68000
O91         O  0.88112474  0.36528487  0.77368273    -0.87300
C92         C  0.03933497  0.39621716  0.78583782     0.84900
C93         C  0.03795392  0.35375351  0.86382605     1.06500
H94         H  0.94744277  0.40095296  0.77920992     0.38300
O95         O  0.94464160  0.38200239  0.79407466    -1.10000
O96         O  0.92762862  0.31221366  0.79454641    -0.66600
Ni97       Ni  0.95630085  0.34300750  0.77097243     1.26300
O98         O  0.00987492  0.40356745  0.79528891    -0.66900
O99         O  0.92161826  0.34954834  0.73842300    -0.79200
C100        C  0.00139987  0.30492047  0.73513500     0.84300
O101        O  0.97189052  0.30590067  0.74643697    -0.66300
Ni102      Ni  0.90122610  0.38393226  0.81320760     1.27400
Ni103      Ni  0.98040414  0.37963757  0.82555140     1.26100
H104        H  0.98059636  0.32194587  0.82228899     0.38800
O105        O  0.73599337  0.00699455  0.32667019    -0.81100
O106        O  0.83428096  0.94336916  0.42631881    -0.65800
O107        O  0.79258882  0.96983403  0.34487829    -1.12400
C108        C  0.73238010  0.87171552  0.36048660     1.05800
O109        O  0.84242555  0.89271465  0.40782549    -0.79000
O110        O  0.82037643  0.88126898  0.34377990    -0.66600
Ni111      Ni  0.78266853  0.01502894  0.33490468     1.34900
C112        C  0.80725236  0.89156947  0.31641069     0.84500
O113        O  0.84532680  0.99325960  0.38419375    -0.79600
O114        O  0.82857826  0.02731536  0.34228712    -0.89800
C115        C  0.84709581  0.91477576  0.42972285     0.84100
O116        O  0.77189493  0.02844349  0.37907487    -0.68000
O117        O  0.76070197  0.86055700  0.36997501    -0.87300
C118        C  0.77308482  0.01471716  0.40793915     0.84900
C119        C  0.84933956  0.01845409  0.36513745     1.06500
H120        H  0.76860400  0.92499794  0.40672773     0.38300
O121        O  0.78272347  0.92292321  0.38729499    -1.10000
O122        O  0.78199048  0.91073232  0.31626611    -0.66600
Ni123      Ni  0.75840264  0.93692166  0.34883870     1.26300
O124        O  0.78512453  0.98571971  0.41340118    -0.66900
O125        O  0.72637410  0.90230728  0.35446757    -0.79200
C126        C  0.72114416  0.98345217  0.31210736     0.84300
O127        O  0.73266091  0.95415193  0.31220260    -0.66300
Ni128      Ni  0.80099113  0.87913695  0.38774876     1.27400
Ni129      Ni  0.81384349  0.95825210  0.38603748     1.26100
H130        H  0.80776895  0.96331923  0.32741530     0.38800
O131        O  0.00587074  0.91445804  0.75557644    -0.81100
O132        O  0.09603525  0.80311005  0.70484188    -0.65800
O133        O  0.06152652  0.88857851  0.72222104    -1.12400
C134        C  0.00425179  0.87004531  0.62152285     1.05800
O135        O  0.11162937  0.82499471  0.65676283    -0.79000
O136        O  0.09011757  0.88460668  0.63097657    -0.66600
Ni137      Ni  0.05152459  0.90272819  0.76600621     1.34900
C138        C  0.07833474  0.91230947  0.63989529     0.84500
O139        O  0.10936228  0.84625184  0.75278528    -0.79600
O140        O  0.09641917  0.89275357  0.78010868    -0.89800
C141        C  0.11094450  0.80036649  0.67707732     0.84100
O142        O  0.03690627  0.86107280  0.78321235    -0.68000
O143        O  0.03148905  0.85601298  0.61296719    -0.87300
C144        C  0.03373949  0.83225635  0.77143392     0.84900
C145        C  0.11512688  0.86778303  0.77481907     1.06500
H146        H  0.03447761  0.82758544  0.68080649     0.38300
O147        O  0.05018091  0.84549113  0.67826023    -1.10000
O148        O  0.05465873  0.91428949  0.66057681    -0.66600
Ni149      Ni  0.02828021  0.88539176  0.68782152     1.26300
O150        O  0.04608421  0.82371581  0.74340377    -0.66900
O151        O  0.99809146  0.88042025  0.65100865    -0.79200
C152        C  0.99258598  0.92770886  0.72951907     0.84300
O153        O  0.00466952  0.92422259  0.70047459    -0.66300
Ni154      Ni  0.07124128  0.84118323  0.63589328     1.27400
Ni155      Ni  0.07930040  0.84550797  0.71570035     1.26100
H156        H  0.07852419  0.90370374  0.71452867     0.38800
O157        O  0.43693399  0.73570011  0.00865980    -0.81100
O158        O  0.33006079  0.79707192  0.91674844    -0.65800
O159        O  0.41434234  0.77449524  0.95393297    -1.12400
C160        C  0.39428947  0.86827577  0.01946248     1.05800
O161        O  0.34722767  0.84829640  0.90820756    -0.79000
O162        O  0.40756413  0.86573834  0.93094083    -0.66600
Ni163      Ni  0.42697932  0.72953161  0.96181036     1.34900
C164        C  0.43600715  0.85687024  0.94181307     0.84500
O165        O  0.37433011  0.75102468  0.90140452    -0.79600
O166        O  0.41823611  0.71897501  0.91563425    -0.89800
C167        C  0.32595019  0.82563758  0.90382332     0.84100
O168        O  0.38425185  0.71306183  0.97417432    -0.68000
O169        O  0.38039995  0.87935167  0.99264290    -0.87300
C170        C  0.35514398  0.72545147  0.97546837     0.84900
C171        C  0.39439707  0.72730714  0.89593186     1.06500
H172        H  0.35208536  0.81320530  0.98275498     0.38300
O173        O  0.37027882  0.81765537  0.96755797    -1.10000
O174        O  0.43999020  0.83540728  0.96536064    -0.66600
Ni175      Ni  0.41059964  0.80557364  0.98969649     1.26300
O176        O  0.34794125  0.75435562  0.96421652    -0.66900
O177        O  0.40515073  0.83862309  0.02334182    -0.79200
C178        C  0.44992917  0.75946399  0.02451927     0.84300
O179        O  0.44895820  0.78918597  0.01344104    -0.66300
Ni180      Ni  0.36469427  0.86174898  0.95094835     1.27400
Ni181      Ni  0.37196467  0.78424533  0.93475267     1.26100
H182        H  0.43038585  0.78283287  0.93802777     0.38800
O183        O  0.23964575  0.47318889  0.60380534    -0.81100
O184        O  0.29732826  0.57778561  0.69744370    -0.65800
O185        O  0.27682921  0.52981272  0.61871043    -1.12400
C186        C  0.37336798  0.47167373  0.64589828     1.05800
O187        O  0.34697510  0.58611303  0.67552666    -0.79000
O188        O  0.35997224  0.55803577  0.61581467    -0.66600
Ni189      Ni  0.23244007  0.52027835  0.60606013     1.34900
C190        C  0.35368026  0.53955366  0.59130911     0.84500
O191        O  0.24974694  0.58549571  0.65053600    -0.79600
O192        O  0.22164586  0.56656611  0.60615225    -0.89800
C193        C  0.32589904  0.59107092  0.69871412     0.84100
O194        O  0.21487321  0.51456661  0.65027861    -0.68000
O195        O  0.38302183  0.50162692  0.64882916    -0.87300
C196        C  0.22706546  0.51595233  0.67966622     0.84900
C197        C  0.22788258  0.58868550  0.62754641     1.06500
H198        H  0.31830472  0.51237904  0.68594440     0.38300
O199        O  0.32044567  0.52392235  0.66462041    -1.10000
O200        O  0.33739067  0.51298236  0.59499431    -0.66600
Ni201      Ni  0.30856478  0.49557908  0.62950569     1.26300
O202        O  0.25594722  0.52738435  0.68598189    -0.66900
O203        O  0.34266291  0.46436326  0.64222223    -0.79200
C204        C  0.26411214  0.45760591  0.59129114     0.84300
O205        O  0.29391638  0.46686485  0.59533738    -0.66300
Ni206      Ni  0.36322467  0.54333772  0.66166520     1.27400
Ni207      Ni  0.28499275  0.55442119  0.65813834     1.26100
H208        H  0.28537337  0.54306663  0.60028802     0.38800
O209        O  0.49772757  0.55853617  0.24546695    -0.81100
O210        O  0.57683265  0.66983955  0.30474394    -0.65800
O211        O  0.54821208  0.58353013  0.28499336    -1.12400
C212        C  0.48213439  0.59646081  0.38171568     1.05800
O213        O  0.58741616  0.65169996  0.35620381    -0.79000
O214        O  0.56871600  0.58982779  0.37752543    -0.66600
Ni215      Ni  0.54424617  0.56926084  0.24040556     1.34900
C216        C  0.56035655  0.56111307  0.36802741     0.84500
O217        O  0.59624761  0.62749575  0.25791062    -0.79600
O218        O  0.59075742  0.57920416  0.23230145    -0.89800
C219        C  0.58890032  0.67434676  0.33369529     0.84100
O220        O  0.53154111  0.61081206  0.22012413    -0.68000
O221        O  0.50662763  0.61435851  0.39023303    -0.87300
C222        C  0.52480679  0.63922251  0.23160773     0.84900
C223        C  0.60649097  0.60613340  0.23711323     1.06500
H224        H  0.51393499  0.64265650  0.32304956     0.38300
O225        O  0.53047406  0.62567474  0.32756150    -1.10000
O226        O  0.53801350  0.55649956  0.34602922    -0.66600
Ni227      Ni  0.51178889  0.58436370  0.31652806     1.26300
O228        O  0.53140490  0.64715166  0.26176993    -0.66900
O229        O  0.47828976  0.58584239  0.35174499    -0.79200
C230        C  0.48118609  0.54562402  0.26957779     0.84300
O231        O  0.49154157  0.54540683  0.29976962    -0.66300
Ni232      Ni  0.54663574  0.63199583  0.37159598     1.27400
Ni233      Ni  0.56308166  0.62689770  0.29279931     1.26100
H234        H  0.56534165  0.56920581  0.29435812     0.38800
O235        O  0.68002919  0.23636464  0.49099302    -0.81100
O236        O  0.57593452  0.32735678  0.55176254    -0.65800
O237        O  0.66024081  0.29098898  0.52895583    -1.12400
C238        C  0.64415618  0.22755470  0.62727495     1.05800
O239        O  0.59695742  0.33656585  0.60167911    -0.79000
O240        O  0.65833763  0.31414548  0.61961716    -0.66600
Ni241      Ni  0.67202749  0.28361837  0.48379409     1.34900
C242        C  0.68613534  0.30174777  0.61110306     0.84500
O243        O  0.61985035  0.34339969  0.50346067    -0.79600
O244        O  0.66516769  0.33042598  0.47339187    -0.89800
C245        C  0.57289468  0.33868196  0.58101957     0.84100
O246        O  0.62879280  0.27396716  0.46642238    -0.68000
O247        O  0.63116052  0.25436151  0.63761176    -0.87300
C248        C  0.59996873  0.27152647  0.47925485     0.84900
C249        C  0.64150138  0.35031136  0.48107645     1.06500
H250        H  0.59913131  0.26293206  0.57094531     0.38300
O251        O  0.61767639  0.27775931  0.57396068    -1.10000
O252        O  0.68846169  0.27848127  0.59011459    -0.66600
Ni253      Ni  0.65731237  0.25547864  0.56161827     1.26300
O254        O  0.59352338  0.28070101  0.50905340    -0.66900
O255        O  0.65275443  0.22282651  0.59688657    -0.79200
C256        C  0.69448924  0.22033591  0.51494697     0.84300
O257        O  0.69467060  0.23120821  0.54470259    -0.66300
Ni258      Ni  0.61481622  0.29504844  0.61789001     1.27400
Ni259      Ni  0.61794792  0.30996329  0.53839383     1.26100
H260        H  0.67619017  0.30635228  0.53668684     0.38800
O261        O  0.75560250  0.97813255  0.82862693    -0.81100
O262        O  0.67392179  0.04409066  0.94326538    -0.65800
O263        O  0.70800759  0.02064690  0.85775581    -1.12400
C264        C  0.78264697  0.10655501  0.87154387     1.05800
O265        O  0.67754077  0.09806545  0.93291016    -0.79000
O266        O  0.69041102  0.10637274  0.86535920    -0.66600
Ni267      Ni  0.70984991  0.97595515  0.84322579     1.34900
C268        C  0.70157959  0.09944077  0.83647630     0.84500
O269        O  0.65280246  0.00324132  0.89735870    -0.79600
O270        O  0.66417171  0.96836404  0.85590217    -0.89800
C271        C  0.66617259  0.07373862  0.95005500     0.84100
O272        O  0.72447945  0.95725344  0.88468638    -0.68000
O273        O  0.75583413  0.12010542  0.88163293    -0.87300
C274        C  0.72503737  0.96676459  0.91482384     0.84900
C275        C  0.64521744  0.97920665  0.87888718     1.06500
H276        H  0.74258091  0.05362440  0.92129631     0.38300
O277        O  0.72805316  0.05997051  0.90287305    -1.10000
O278        O  0.72642199  0.08026600  0.83274650    -0.66600
Ni279      Ni  0.74738833  0.04708726  0.86139827     1.26300
O280        O  0.71514310  0.99543676  0.92398218    -0.66900
O281        O  0.78515247  0.07556903  0.86647740    -0.79200
C282        C  0.77361789  0.00124261  0.81662645     0.84300
O283        O  0.76693077  0.03145109  0.82131643    -0.66300
Ni284      Ni  0.71666163  0.10584414  0.90576619     1.27400
Ni285      Ni  0.69073152  0.03099405  0.90071961     1.26100
H286        H  0.69280531  0.03135585  0.84230752     0.38800
O287        O  0.92320529  0.76300827  0.99520336    -0.81100
O288        O  0.81208901  0.70236720  0.08364152    -0.65800
O289        O  0.89772808  0.72371726  0.04850899    -1.12400
C290        C  0.88098070  0.63238593  0.97991825     1.05800
O291        O  0.82621593  0.64925034  0.08867753    -0.79000
O292        O  0.89018446  0.63204545  0.06934529    -0.66600
Ni293      Ni  0.91219908  0.76812328  0.04221574     1.34900
C294        C  0.91874531  0.64072192  0.05863467     0.84500
O295        O  0.85693356  0.74781192  0.10026888    -0.79600
O296        O  0.90265342  0.77751207  0.08862338    -0.89800
C297        C  0.80665931  0.67335077  0.09527714     0.84100
O298        O  0.87040663  0.78676757  0.02925033    -0.68000
O299        O  0.86673038  0.62057258  0.00608373    -0.87300
C300        C  0.84085928  0.77602111  0.02710601     0.84900
C301        C  0.87774893  0.77035686  0.10725796     1.06500
H302        H  0.83543461  0.68752664  0.01686866     0.38300
O303        O  0.85329206  0.68222873  0.03239235    -1.10000
O304        O  0.92264330  0.66259204  0.03563273    -0.66600
Ni305      Ni  0.89426941  0.69398654  0.01177380     1.26300
O306        O  0.83206320  0.74711500  0.03719998    -0.66900
O307        O  0.88944788  0.66260486  0.97677605    -0.79200
C308        C  0.93626196  0.73890249  0.97966891     0.84300
O309        O  0.93371509  0.70925790  0.99025874    -0.66300
Ni310      Ni  0.84778994  0.63731283  0.04700592     1.27400
Ni311      Ni  0.85465513  0.71495247  0.06632178     1.26100
H312        H  0.91332404  0.71426919  0.06448394     0.38800
C313        C  0.73643120  0.94149192  0.93981403     0.01100
C314        C  0.76640807  0.94523035  0.95780932     0.03900
C315        C  0.78023296  0.91793908  0.97582250    -0.12100
C316        C  0.76430046  0.88686277  0.97560790     0.23200
C317        C  0.73343239  0.88374021  0.95937567    -0.12700
C318        C  0.71972183  0.91073357  0.94130755     0.04600
C319        C  0.78173214  0.85655594  0.98853989     0.27100
C320        C  0.80391152  0.83967968  0.96739291    -0.13400
C321        C  0.82097253  0.81126084  0.97924347     0.05100
C322        C  0.81629794  0.79960404  0.01242904    -0.09400
C323        C  0.79324884  0.81582958  0.03327960     0.06000
C324        C  0.77567966  0.84401842  0.02117786    -0.13700
Br325      Br  0.71095527  0.84160691  0.96015684    -0.05800
Br326      Br  0.79027515  0.98642761  0.95474625    -0.00200
Br327      Br  0.85167319  0.78863561  0.95026276     0.00300
Br328      Br  0.74400044  0.86615034  0.04940963    -0.04100
Br329      Br  0.67904695  0.90424861  0.91648049     0.00400
Br330      Br  0.82187471  0.92233074  0.99942312    -0.03400
Br331      Br  0.81159908  0.85612512  0.92231622    -0.04300
Br332      Br  0.78781927  0.80119024  0.07924529    -0.00300
C333        C  0.65079514  0.20188655  0.65310967     0.01100
C334        C  0.62391851  0.18682848  0.67003386     0.03900
C335        C  0.62942611  0.16931448  0.70038440    -0.12100
C336        C  0.66202238  0.16577136  0.71311790     0.23200
C337        C  0.68914770  0.17886571  0.69500918    -0.12700
C338        C  0.68348600  0.19757976  0.66547504     0.04600
C339        C  0.66813051  0.14850255  0.74565251     0.27100
C340        C  0.67418345  0.16692206  0.77462600    -0.13400
C341        C  0.68401590  0.15074728  0.80464472     0.05100
C342        C  0.68724661  0.11584638  0.80602031    -0.09400
C343        C  0.68050730  0.09748029  0.77680484     0.06000
C344        C  0.67078420  0.11383773  0.74687689    -0.13700
Br345      Br  0.73400425  0.17195734  0.71144277    -0.05800
Br346      Br  0.57954280  0.19074700  0.65173326    -0.00200
Br347      Br  0.69696835  0.17713599  0.84236526     0.00300
Br348      Br  0.66245361  0.08906122  0.70673004    -0.04100
Br349      Br  0.72025516  0.21971893  0.64379895     0.00400
Br350      Br  0.59237720  0.15137239  0.72532965    -0.03400
Br351      Br  0.67062209  0.21462388  0.77245613    -0.04300
Br352      Br  0.68522416  0.04998750  0.77645838    -0.00300
C353        C  0.63798673  0.38288822  0.46291037     0.01100
C354        C  0.63598594  0.38440338  0.42749401     0.03900
C355        C  0.62740899  0.41441979  0.41072086    -0.12100
C356        C  0.62084312  0.44322052  0.42906968     0.23200
C357        C  0.62437563  0.44220587  0.46423094    -0.12700
C358        C  0.63319223  0.41234062  0.48106713     0.04600
C359        C  0.60608650  0.47325874  0.41214138     0.27100
C360        C  0.62618222  0.49971950  0.40076311    -0.13400
C361        C  0.61143926  0.52858030  0.38642094     0.05100
C362        C  0.57641320  0.53124875  0.38361919    -0.09400
C363        C  0.55640620  0.50458151  0.39504586     0.06000
C364        C  0.57123696  0.47568059  0.40873938    -0.13700
Br365      Br  0.61509087  0.48157673  0.48936803    -0.05800
Br366      Br  0.64219021  0.34486431  0.40181000    -0.00200
Br367      Br  0.63938753  0.56368701  0.36916703     0.00300
Br368      Br  0.54371205  0.43897471  0.42295128    -0.04100
Br369      Br  0.63922786  0.41217631  0.52911422     0.00400
Br370      Br  0.62226361  0.41574763  0.36262539    -0.03400
Br371      Br  0.67391721  0.49610830  0.40442556    -0.04300
Br372      Br  0.50833098  0.50776525  0.39387706    -0.00300
C373        C  0.77754755  0.66688080  0.11786827     0.01100
C374        C  0.78113850  0.64513270  0.14594736     0.03900
C375        C  0.75300637  0.63459342  0.16426035    -0.12100
C376        C  0.72108310  0.64718413  0.15625277     0.23200
C377        C  0.71756163  0.67047703  0.12963981    -0.12700
C378        C  0.74551914  0.68010596  0.11032735     0.04600
C379        C  0.69157441  0.63646231  0.17658211     0.27100
C380        C  0.66906410  0.61295186  0.16426272    -0.13400
C381        C  0.64127112  0.60291345  0.18361115     0.05100
C382        C  0.63723264  0.61416065  0.21697748    -0.11800
C383        C  0.66159084  0.63597225  0.22987981     0.06000
C384        C  0.68694383  0.64873650  0.20901988    -0.13700
Br385      Br  0.67410587  0.68884033  0.11949565    -0.05800
Br386      Br  0.82487356  0.63142804  0.16127894    -0.00200
Br387      Br  0.60841915  0.57525103  0.16266312     0.00300
Br388      Br  0.71470746  0.68431730  0.22432411    -0.04100
Br389      Br  0.73910072  0.71054986  0.07292076     0.00400
Br390      Br  0.75803455  0.60194658  0.19994889    -0.03400
Br391      Br  0.67631237  0.59479626  0.12042573    -0.04300
Br392      Br  0.66296262  0.64656995  0.27690352    -0.00300
C393        C  0.39989597  0.44547045  0.64435377     0.01100
C394        C  0.43233968  0.45222218  0.65699300     0.03900
C395        C  0.45961603  0.43245068  0.64784799    -0.12100
C396        C  0.45474339  0.40471161  0.62785215     0.23200
C397        C  0.42236987  0.39531450  0.61879135    -0.12700
C398        C  0.39486888  0.41547516  0.62690837     0.04600
C399        C  0.48397136  0.38649461  0.61494323     0.27100
C400        C  0.49923565  0.39745091  0.58498562    -0.13400
C401        C  0.52807500  0.38152359  0.57338843     0.05100
C402        C  0.54156949  0.35440799  0.59163628    -0.09400
C403        C  0.52554607  0.34269701  0.62102696     0.06000
C404        C  0.49707041  0.35906373  0.63292204    -0.13700
Br405      Br  0.41630023  0.35535007  0.59371179    -0.05800
Br406      Br  0.44048877  0.48770029  0.68793725    -0.00200
Br407      Br  0.54982491  0.39803241  0.53346482     0.00300
Br408      Br  0.47630804  0.34450267  0.67417082    -0.04100
Br409      Br  0.35126437  0.40140256  0.61247665     0.00400
Br410      Br  0.50426885  0.44407862  0.66135116    -0.03400
Br411      Br  0.48098985  0.43494747  0.56033004    -0.04300
Br412      Br  0.54159941  0.30327745  0.64426093    -0.00300
C413        C  0.36720987  0.54776989  0.55762388     0.01100
C414        C  0.38511573  0.52340696  0.53995100     0.03900
C415        C  0.39930301  0.53115652  0.50864156    -0.12100
C416        C  0.39686646  0.56355635  0.49520350     0.23200
C417        C  0.37871535  0.58784414  0.51246036    -0.12700
C418        C  0.36328290  0.57978090  0.54324683     0.04600
C419        C  0.41752041  0.57279791  0.46566346     0.27100
C420        C  0.45178009  0.57748720  0.47038988    -0.13400
C421        C  0.47273529  0.58232337  0.44267619     0.05100
C422        C  0.45915035  0.58680208  0.40978965    -0.09400
C423        C  0.42437260  0.58288011  0.40538273     0.06000
C424        C  0.40395587  0.57450388  0.43307722    -0.13700
Br425      Br  0.37687931  0.63262444  0.49488190    -0.05800
Br426      Br  0.39332519  0.48004843  0.55957843    -0.00200
Br427      Br  0.52031213  0.57934391  0.45089155     0.00300
Br428      Br  0.35752141  0.56442037  0.42659160    -0.04100
Br429      Br  0.33619247  0.61239720  0.56516687     0.00400
Br430      Br  0.42433997  0.49793011  0.48499956    -0.03400
Br431      Br  0.47010590  0.57665114  0.51537794    -0.04300
Br432      Br  0.40376862  0.59017140  0.36236825    -0.00300
C433        C  0.46395354  0.75169805  0.05811708     0.01100
C434        C  0.49319169  0.73241810  0.06119250     0.03900
C435        C  0.50221710  0.71814417  0.09246260    -0.12100
C436        C  0.48255881  0.72390202  0.12107758     0.23200
C437        C  0.45467799  0.74517337  0.11846147    -0.12700
C438        C  0.44505475  0.75855499  0.08696776     0.04600
C439        C  0.48968416  0.70513652  0.15288963     0.27100
C440        C  0.47325833  0.67500003  0.15942854    -0.13400
C441        C  0.48312432  0.65458700  0.18674814     0.05100
C442        C  0.50987947  0.66391068  0.20767484    -0.09400
C443        C  0.52527123  0.69491971  0.20193392     0.06000
C444        C  0.51477810  0.71563739  0.17495657    -0.13700
Br445      Br  0.42887575  0.75465953  0.15784452    -0.05800
Br446      Br  0.52045127  0.72514733  0.02226692    -0.00200
Br447      Br  0.46017361  0.61335716  0.19465569     0.00300
Br448      Br  0.53567410  0.75791188  0.16709283    -0.04100
Br449      Br  0.40431449  0.78385160  0.08291579     0.00400
Br450      Br  0.54039411  0.68899258  0.09578531    -0.03400
Br451      Br  0.43820209  0.66090253  0.12974520    -0.04300
Br452      Br  0.56335546  0.70762754  0.22818958    -0.00300
C453        C  0.46561381  0.87399830  0.92778244     0.01100
C454        C  0.49340738  0.85598382  0.91606939     0.03900
C455        C  0.52232212  0.87277246  0.90549239    -0.12100
C456        C  0.52373234  0.90753154  0.90684004     0.23200
C457        C  0.49591823  0.92559671  0.91789314    -0.12700
C458        C  0.46669948  0.90903686  0.92759378     0.04600
C459        C  0.55515976  0.92517830  0.89906315     0.27100
C460        C  0.57674867  0.93322424  0.92544493    -0.13400
C461        C  0.60509598  0.95251733  0.91910969     0.05100
C462        C  0.61337576  0.96197962  0.88574510    -0.09400
C463        C  0.59180406  0.95354044  0.85923662     0.06000
C464        C  0.56253098  0.93555947  0.86599500    -0.13700
Br465      Br  0.49871186  0.97312027  0.92156282    -0.05800
Br466      Br  0.49171646  0.80849899  0.91298900    -0.00200
Br467      Br  0.63233850  0.96512489  0.95680294     0.00300
Br468      Br  0.53223377  0.92533706  0.83011633    -0.04100
Br469      Br  0.42886367  0.93493244  0.94197069     0.00400
Br470      Br  0.56063560  0.84830292  0.89022560    -0.03400
Br471      Br  0.56750979  0.91715289  0.97040694    -0.04300
Br472      Br  0.60099437  0.96848081  0.81393851    -0.00300
C473        C  0.38799743  0.70750111  0.86595952     0.01100
C474        C  0.37469906  0.67545277  0.86992467     0.03900
C475        C  0.36367473  0.65816781  0.84178661    -0.12100
C476        C  0.36621270  0.67264832  0.80949296     0.23200
C477        C  0.37999739  0.70447587  0.80538927    -0.12700
C478        C  0.39091933  0.72187622  0.83361822     0.04600
C479        C  0.35598911  0.65333648  0.77993882     0.27100
C480        C  0.37806244  0.62965623  0.76707146    -0.13400
C481        C  0.36772218  0.60881184  0.74130345     0.05100
C482        C  0.33554111  0.61253034  0.72695751    -0.09400
C483        C  0.31350191  0.63668149  0.73970396     0.06000
C484        C  0.32366233  0.65674393  0.76641108    -0.13700
Br485      Br  0.38356435  0.72417549  0.76114157    -0.05800
Br486      Br  0.37028997  0.65558927  0.91406255    -0.00200
Br487      Br  0.39720387  0.57334965  0.72805138     0.00300
Br488      Br  0.29328814  0.68864450  0.78508357    -0.04100
Br489      Br  0.41060077  0.76507650  0.82811221     0.00400
Br490      Br  0.34439435  0.61475060  0.84738696    -0.03400
Br491      Br  0.42247612  0.62541737  0.78553013    -0.04300
Br492      Br  0.26979363  0.64327891  0.72033655    -0.00300
C493        C  0.95333064  0.74562913  0.94740877     0.01100
C494        C  0.94004026  0.73336541  0.91726041     0.03900
C495        C  0.95500280  0.74138603  0.88636955    -0.12100
C496        C  0.98245751  0.76275748  0.88520900     0.23200
C497        C  0.99635977  0.77442635  0.91519949    -0.12700
C498        C  0.98183417  0.76586640  0.94627117     0.04600
C499        C  0.99306295  0.77706349  0.85248324     0.27100
C500        C  0.01948378  0.76304993  0.83429923    -0.13400
C501        C  0.03037914  0.77847477  0.80426099     0.05100
C502        C  0.01534060  0.80842884  0.79305507    -0.09400
C503        C  0.98637094  0.81986985  0.80925448     0.06000
C504        C  0.97580897  0.80481902  0.83930505    -0.13700
Br505      Br  0.03442570  0.80330014  0.91335026    -0.05800
Br506      Br  0.89896083  0.70910792  0.91723804    -0.00200
Br507      Br  0.06632989  0.75900842  0.77944725     0.00300
Br508      Br  0.93889611  0.82356360  0.86364865    -0.04100
Br509      Br  0.00043523  0.78261375  0.98718099     0.00400
Br510      Br  0.93683000  0.72484122  0.84508994    -0.03400
Br511      Br  0.04174237  0.72393633  0.85176005    -0.04300
Br512      Br  0.96103339  0.85641620  0.79016847    -0.00300
C513        C  0.96106131  0.94624068  0.73353483     0.01100
C514        C  0.93141604  0.93462729  0.71888877     0.03900
C515        C  0.90057942  0.94871318  0.72748916    -0.12100
C516        C  0.89911222  0.97362972  0.75161287     0.23200
C517        C  0.92881335  0.98673375  0.76465240    -0.12700
C518        C  0.95978423  0.97334456  0.75522788     0.04600
C519        C  0.86671791  0.98109278  0.76767534     0.27100
C520        C  0.84478335  0.00511438  0.75397376    -0.13400
C521        C  0.81338679  0.01029414  0.76876619     0.05100
C522        C  0.80453516  0.99266847  0.79837184    -0.09400
C523        C  0.82634650  0.96793431  0.81147320     0.06000
C524        C  0.85702828  0.96191737  0.79580334    -0.13700
Br525      Br  0.92683299  0.02122580  0.79732932    -0.05800
Br526      Br  0.93217786  0.89685377  0.69027085    -0.00200
Br527      Br  0.78140415  0.03922160  0.74663428     0.00300
Br528      Br  0.88592281  0.92679925  0.81252261    -0.04100
Br529      Br  0.00055672  0.99154384  0.77250680     0.00400
Br530      Br  0.85983976  0.93184725  0.70868791    -0.03400
Br531      Br  0.85765839  0.03045426  0.71471826    -0.04300
Br532      Br  0.81539363  0.94258004  0.85153959    -0.00300
C533        C  0.12640448  0.76855116  0.66783143     0.01100
C534        C  0.12413913  0.75753190  0.63433298     0.03900
C535        C  0.13862755  0.72722771  0.62557146    -0.12100
C536        C  0.15403473  0.70719030  0.65028218     0.23200
C537        C  0.15523431  0.71727497  0.68379359    -0.12700
C538        C  0.14225478  0.74826409  0.69249882     0.04600
C539        C  0.17206442  0.67707035  0.64054322     0.27100
C540        C  0.15520178  0.64683085  0.63756233    -0.13400
C541        C  0.17319267  0.61793739  0.63030078     0.05100
C542        C  0.20814870  0.61935714  0.62696415    -0.09400
C543        C  0.22458980  0.65004692  0.62801115     0.06000
C544        C  0.20658311  0.67883861  0.63507656    -0.13700
Br545      Br  0.17567407  0.68870051  0.71749134    -0.05800
Br546      Br  0.10006952  0.78251881  0.60010460    -0.00200
Br547      Br  0.14999066  0.57634112  0.62701322     0.00300
Br548      Br  0.22934900  0.72058988  0.63907538    -0.04100
Br549      Br  0.14891254  0.76337376  0.73770506     0.00400
Br550      Br  0.13819144  0.71321869  0.57951024    -0.03400
Br551      Br  0.10789552  0.64477503  0.64555744    -0.04300
Br552      Br  0.27172256  0.65285614  0.61924468    -0.00300
C553        C  0.14538955  0.86323752  0.79497108     0.01100
C554        C  0.17541228  0.87741542  0.78388446     0.03900
C555        C  0.20499653  0.87107787  0.80177227    -0.12100
C556        C  0.20460149  0.84997388  0.83028639     0.23200
C557        C  0.17462638  0.83550512  0.84117617    -0.12700
C558        C  0.14492751  0.84237351  0.82364620     0.04600
C559        C  0.23573241  0.84351184  0.84907401     0.27100
C560        C  0.25645665  0.81680074  0.84043372    -0.13400
C561        C  0.28673356  0.81154552  0.85748646     0.05100
C562        C  0.29601885  0.83276818  0.88355800    -0.09400
C563        C  0.27534092  0.85979251  0.89184725     0.06000
C564        C  0.24496092  0.86475247  0.87497880    -0.13700
Br565      Br  0.17456248  0.80599184  0.87978631    -0.05800
Br566      Br  0.17601429  0.90471400  0.74365952    -0.00200
Br567      Br  0.31618247  0.77647437  0.84366491     0.00300
Br568      Br  0.21512377  0.89978761  0.88818464    -0.04100
Br569      Br  0.10364654  0.82312420  0.83869895     0.00400
Br570      Br  0.24619006  0.89095646  0.78718560    -0.03400
Br571      Br  0.24278681  0.78700851  0.80580139    -0.04300
Br572      Br  0.28776018  0.88957387  0.92706447    -0.00300
C573        C  0.70566170  0.84735855  0.35609548     0.01100
C574        C  0.67982309  0.84472322  0.37984509     0.03900
C575        C  0.65588736  0.81955926  0.37708090    -0.12100
C576        C  0.65823531  0.79672671  0.35090453     0.23200
C577        C  0.68344067  0.79998441  0.32667761    -0.12700
C578        C  0.70777351  0.82443588  0.32995542     0.04600
C579        C  0.63797476  0.76628321  0.35113260     0.27100
C580        C  0.65266919  0.73636008  0.36266211    -0.13400
C581        C  0.63657142  0.70614281  0.35743755     0.05100
C582        C  0.60535151  0.70587226  0.34108074    -0.09400
C583        C  0.58959647  0.73606584  0.33180411     0.06000
C584        C  0.60622779  0.76617716  0.33615747    -0.13700
Br585      Br  0.68543221  0.76953251  0.28987432    -0.05800
Br586      Br  0.68001745  0.87259597  0.41857851    -0.00200
Br587      Br  0.65865201  0.66535057  0.37096179     0.00300
Br588      Br  0.58632209  0.80705833  0.32008940    -0.04100
Br589      Br  0.74572866  0.82391376  0.30061727     0.00400
Br590      Br  0.62075828  0.81546339  0.40971898    -0.03400
Br591      Br  0.69607612  0.73675148  0.38372633    -0.04300
Br592      Br  0.54452876  0.73651304  0.31463188    -0.00300
C593        C  0.82059426  0.87923087  0.28349532     0.01100
C594        C  0.85394766  0.86741708  0.28085342     0.03900
C595        C  0.86468649  0.85104757  0.25174930    -0.12100
C596        C  0.84241474  0.84557489  0.22517419     0.23200
C597        C  0.80985354  0.85845755  0.22679901    -0.12700
C598        C  0.79941702  0.87660503  0.25485094     0.04600
C599        C  0.85323464  0.82632504  0.19539395     0.27100
C600        C  0.86397395  0.84283262  0.16592736    -0.13400
C601        C  0.87271340  0.82468429  0.13730491     0.05100
C602        C  0.87167140  0.78961236  0.13822163    -0.09400
C603        C  0.86168650  0.77315980  0.16817626     0.06000
C604        C  0.85222271  0.79145644  0.19640350    -0.13700
Br605      Br  0.77891890  0.84962641  0.19088787    -0.05800
Br606      Br  0.88636835  0.87515688  0.31569731    -0.00200
Br607      Br  0.88331953  0.84846339  0.09623959     0.00300
Br608      Br  0.83711195  0.76876078  0.23650010    -0.04100
Br609      Br  0.75596094  0.89765774  0.25218262     0.00400
Br610      Br  0.91007250  0.83548518  0.24805807    -0.03400
Br611      Br  0.86612167  0.89055093  0.16479708    -0.04300
Br612      Br  0.86148472  0.72533450  0.17118123    -0.00300
C613        C  0.86844939  0.90722151  0.45936810     0.01100
C614        C  0.86044542  0.92082895  0.49093483     0.03900
C615        C  0.88088511  0.91421598  0.51895088    -0.12100
C616        C  0.90840427  0.89285298  0.51615709     0.23200
C617        C  0.91581298  0.87821182  0.48531040    -0.12700
C618        C  0.89639543  0.88579715  0.45679790     0.04600
C619        C  0.93163259  0.88808645  0.54464307     0.27100
C620        C  0.96202313  0.90517285  0.54413394    -0.13400
C621        C  0.98652170  0.89751025  0.56811729     0.05100
C622        C  0.97919480  0.87577023  0.59514362    -0.09400
C623        C  0.94829452  0.85947002  0.59641973     0.06000
C624        C  0.92478037  0.86502310  0.57065487    -0.13700
Br625      Br  0.95352202  0.84841876  0.48214250    -0.05800
Br626      Br  0.82068433  0.94727575  0.49717980    -0.00200
Br627      Br  0.03062572  0.91531935  0.56227610     0.00300
Br628      Br  0.88371520  0.84054119  0.57036838    -0.04100
Br629      Br  0.91014890  0.86810150  0.41426672     0.00400
Br630      Br  0.87194953  0.93519830  0.56113635    -0.03400
Br631      Br  0.96990438  0.93928640  0.51049982    -0.04300
Br632      Br  0.93952296  0.82741367  0.63171216    -0.00300
C633        C  0.71043302  0.18766659  0.50741385     0.01100
C634        C  0.70284780  0.15854155  0.52629307     0.03900
C635        C  0.71517440  0.12737608  0.51637611    -0.12100
C636        C  0.73438267  0.12471288  0.48707135     0.23200
C637        C  0.74328219  0.15372389  0.46911073    -0.12700
C638        C  0.73163741  0.18497454  0.47932474     0.04600
C639        C  0.74257464  0.09154117  0.47307461     0.27100
C640        C  0.77482147  0.07777480  0.47654431    -0.13400
C641        C  0.78412003  0.04991715  0.45772879     0.05100
C642        C  0.76096199  0.03524625  0.43589709    -0.09400
C643        C  0.72783611  0.04703118  0.43514992     0.06000
C644        C  0.71874024  0.07523309  0.45336124    -0.13700
Br645      Br  0.77067791  0.15044981  0.42961997    -0.05800
Br646      Br  0.67323034  0.15993484  0.56401609    -0.00200
Br647      Br  0.82954749  0.03413782  0.45919891     0.00300
Br648      Br  0.67420966  0.09312491  0.44920294    -0.04100
Br649      Br  0.74534477  0.22422306  0.45480067     0.00400
Br650      Br  0.70499734  0.08783931  0.54224253    -0.03400
Br651      Br  0.80675729  0.09848812  0.50545456    -0.04300
Br652      Br  0.69532029  0.02523558  0.40768589    -0.00300
C653        C  0.20549941  0.50336621  0.70696659     0.01100
C654        C  0.20644044  0.46949388  0.71572927     0.03900
C655        C  0.17869870  0.45448999  0.73124705    -0.12100
C656        C  0.14977626  0.47338447  0.73773034     0.23200
C657        C  0.15011782  0.50788945  0.73165897    -0.12700
C658        C  0.17841517  0.52292626  0.71733429     0.04600
C659        C  0.11879396  0.45682200  0.74974420     0.27100
C660        C  0.09818917  0.44027298  0.72683449    -0.13400
C661        C  0.07032761  0.42239181  0.73839033     0.05100
C662        C  0.06206402  0.42199392  0.77269324    -0.09400
C663        C  0.08141844  0.44031598  0.79529040     0.06000
C664        C  0.11018920  0.45696784  0.78399490    -0.13700
Br665      Br  0.11092654  0.53409465  0.74050613    -0.05800
Br666      Br  0.24568085  0.44389030  0.70569855    -0.00200
Br667      Br  0.04420060  0.39694290  0.70757198     0.00300
Br668      Br  0.13928329  0.47789123  0.81568266    -0.04100
Br669      Br  0.18068925  0.57037233  0.71225828     0.00400
Br670      Br  0.17954957  0.40775608  0.74193018    -0.03400
Br671      Br  0.10905892  0.44091002  0.67974546    -0.04300
Br672      Br  0.06952750  0.44110074  0.84208466    -0.00300
C673        C  0.89470967  0.28174848  0.83317539     0.01100
C674        C  0.91467157  0.25289582  0.83767624     0.03900
C675        C  0.89988286  0.22203194  0.84512725    -0.12100
C676        C  0.86509781  0.21948365  0.84784911     0.23200
C677        C  0.84509136  0.24809708  0.84401764    -0.12700
C678        C  0.85970712  0.27899415  0.83629455     0.04600
C679        C  0.84927401  0.18665904  0.85406634     0.27100
C680        C  0.83952672  0.16697622  0.82691974    -0.13400
C681        C  0.82071443  0.13802468  0.83273127     0.05100
C682        C  0.81101739  0.12913008  0.86563548    -0.09400
C683        C  0.82317293  0.14735074  0.89282498     0.06000
C684        C  0.84244688  0.17586550  0.88709031    -0.13700
Br685      Br  0.79736187  0.24452099  0.84857053    -0.05800
Br686      Br  0.96240701  0.25493857  0.83343761    -0.00200
Br687      Br  0.80666472  0.11175535  0.79557433     0.00300
Br688      Br  0.85840321  0.20102319  0.92436666    -0.04100
Br689      Br  0.83112373  0.31655530  0.82645872     0.00400
Br690      Br  0.92705204  0.18277456  0.85127195    -0.03400
Br691      Br  0.85058843  0.18079259  0.78175094    -0.04300
Br692      Br  0.81230016  0.13359644  0.93805967    -0.00300
C693        C  0.88967714  0.60869610  0.95333453     0.01100
C694        C  0.92342971  0.60307126  0.94507856     0.03900
C695        C  0.93274274  0.57407025  0.92830108    -0.12100
C696        C  0.90825442  0.55158548  0.91793582     0.23200
C697        C  0.87430660  0.55903249  0.92302386    -0.12700
C698        C  0.86506993  0.58739654  0.94085321     0.04600
C699        C  0.91813379  0.51979780  0.90235449     0.27100
C700        C  0.92740067  0.51912279  0.86834534    -0.13400
C701        C  0.93604256  0.48886994  0.85354406     0.05100
C702        C  0.93384449  0.45885778  0.87223447    -0.09400
C703        C  0.92528151  0.45968440  0.90645638     0.06000
C704        C  0.91829369  0.49016522  0.92166232    -0.13700
Br705      Br  0.84055321  0.52967827  0.90651875    -0.05800
Br706      Br  0.95738601  0.63380975  0.95835147    -0.00200
Br707      Br  0.95033582  0.48868846  0.80737558     0.00300
Br708      Br  0.91008125  0.49167385  0.96924301    -0.04100
Br709      Br  0.81861707  0.59755343  0.94781076     0.00400
Br710      Br  0.97923375  0.56382473  0.92157336    -0.03400
Br711      Br  0.92797486  0.55978040  0.84209790    -0.04300
Br712      Br  0.92453220  0.41924187  0.93284114    -0.00300
C713        C  0.71688156  0.31307978  0.62836316     0.01100
C714        C  0.74532844  0.32317341  0.61007478     0.03900
C715        C  0.77497374  0.33139302  0.62705360    -0.12100
C716        C  0.77657513  0.32926279  0.66229381     0.23200
C717        C  0.74824893  0.31956072  0.68064207    -0.12700
C718        C  0.71854357  0.31154590  0.66385239     0.04600
C719        C  0.80813432  0.33677613  0.68024511     0.27100
C720        C  0.83147827  0.31133282  0.68729331    -0.13400
C721        C  0.85980782  0.31770158  0.70707110     0.05100
C722        C  0.86511067  0.34973956  0.71949245    -0.09400
C723        C  0.84266080  0.37555204  0.71083556     0.06000
C724        C  0.81416710  0.36904483  0.69146610    -0.13700
Br725      Br  0.75057342  0.31655673  0.72899112    -0.05800
Br726      Br  0.74374979  0.32669311  0.56186400    -0.00200
Br727      Br  0.88975594  0.28187270  0.71926655     0.00300
Br728      Br  0.78277772  0.40409505  0.68103218    -0.04100
Br729      Br  0.68098749  0.29620850  0.68993459     0.00400
Br730      Br  0.81379252  0.34546843  0.60233397    -0.03400
Br731      Br  0.82383724  0.26747378  0.67070750    -0.04300
Br732      Br  0.85109181  0.42000566  0.72549409    -0.00300
C733        C  0.13725359  0.42263352  0.03771048     0.01100
C734        C  0.13755623  0.38762294  0.03571285     0.03900
C735        C  0.12432953  0.37209466  0.00728633    -0.12100
C736        C  0.11154766  0.39131441  0.98038104     0.23200
C737        C  0.11264084  0.42607326  0.98151013    -0.12700
C738        C  0.12473501  0.44172003  0.01025883     0.04600
C739        C  0.09410438  0.37554220  0.95203835     0.27100
C740        C  0.11088261  0.36979730  0.92171212    -0.13400
C741        C  0.09280074  0.36069840  0.89303157     0.05100
C742        C  0.05785234  0.35709144  0.89479554    -0.09400
C743        C  0.04151601  0.36071863  0.92579164     0.06000
C744        C  0.05959934  0.36994219  0.95430518    -0.13700
Br745      Br  0.09638540  0.45220891  0.94370610    -0.05800
Br746      Br  0.15672114  0.36053204  0.07131299    -0.00200
Br747      Br  0.11567096  0.35644018  0.85078967     0.00300
Br748      Br  0.03687877  0.37671290  0.99623345    -0.04100
Br749      Br  0.12086406  0.48923191  0.01262316     0.00400
Br750      Br  0.12295465  0.32444971  0.00514795    -0.03400
Br751      Br  0.15835681  0.37633490  0.91923037    -0.04300
Br752      Br  0.99416371  0.35346846  0.92917080    -0.00300
C753        C  0.94921298  0.62398452  0.07196851     0.01100
C754        C  0.95951687  0.59343842  0.05867485     0.03900
C755        C  0.99104896  0.58001040  0.06691699    -0.12100
C756        C  0.01227215  0.59652185  0.08920951     0.23200
C757        C  0.00129275  0.62612427  0.10394566    -0.12700
C758        C  0.97005631  0.64002053  0.09499472     0.04600
C759        C  0.04522684  0.58139856  0.09818317     0.27100
C760        C  0.04795752  0.56032631  0.12651215    -0.13400
C761        C  0.07760999  0.54252070  0.13276210     0.05100
C762        C  0.10367099  0.54269317  0.10878085    -0.09400
C763        C  0.10190355  0.56582443  0.08163479     0.06000
C764        C  0.07297752  0.58558796  0.07690940    -0.13700
Br765      Br  0.02896483  0.64736761  0.13659727    -0.05800
Br766      Br  0.93052191  0.56977904  0.02908566    -0.00200
Br767      Br  0.08265397  0.51911126  0.17526616     0.00300
Br768      Br  0.07049461  0.61753232  0.04042082    -0.04100
Br769      Br  0.95543748  0.68075607  0.11468499     0.00400
Br770      Br  0.00536377  0.53871558  0.04780513    -0.03400
Br771      Br  0.01001784  0.55394295  0.15549364    -0.04300
Br772      Br  0.13771659  0.56985733  0.04969264    -0.00300
C773        C  0.44725127  0.53432995  0.26203202     0.01100
C774        C  0.42064634  0.55713294  0.26391575     0.03900
C775        C  0.38893439  0.54874394  0.25179582    -0.12100
C776        C  0.38402490  0.51799070  0.23645618     0.23200
C777        C  0.41044733  0.49476855  0.23553311    -0.12700
C778        C  0.44204944  0.50303229  0.24817850     0.04600
C779        C  0.35258024  0.51165470  0.21786189     0.27100
C780        C  0.32863606  0.48953767  0.23081192    -0.13400
C781        C  0.30110096  0.48051347  0.21095597     0.05100
C782        C  0.29699822  0.49433115  0.17828639    -0.09400
C783        C  0.31853055  0.51998668  0.16766089     0.06000
C784        C  0.34713190  0.52726582  0.18640460    -0.13700
Br785      Br  0.40391040  0.45231642  0.21528174    -0.05800
Br786      Br  0.42869546  0.60129454  0.27958052    -0.00200
Br787      Br  0.27056006  0.44806517  0.22844852     0.00300
Br788      Br  0.38029109  0.55651340  0.16742678    -0.04100
Br789      Br  0.47895002  0.47259512  0.24433397     0.00400
Br790      Br  0.35255829  0.58000143  0.25461744    -0.03400
Br791      Br  0.33481086  0.47023296  0.27505832    -0.04300
Br792      Br  0.30833624  0.54610806  0.12781549    -0.00300
C793        C  0.24681039  0.55648871  0.04077138     0.01100
C794        C  0.26463517  0.55921461  0.01048415     0.03900
C795        C  0.27725020  0.59012437  0.99971833    -0.12100
C796        C  0.27041594  0.61883737  0.01821602     0.23200
C797        C  0.24969655  0.61656122  0.04662271    -0.12700
C798        C  0.23886679  0.58537089  0.05851595     0.04600
C799        C  0.28831330  0.65025353  0.01022160     0.27100
C800        C  0.31619355  0.65897717  0.02966396    -0.13400
C801        C  0.33560482  0.68643744  0.02029170     0.05100
C802        C  0.32887024  0.70399916  0.99008709    -0.09400
C803        C  0.29985900  0.69651709  0.97159240     0.06000
C804        C  0.27908987  0.67030846  0.98232256    -0.13700
Br805      Br  0.23766052  0.65617893  0.07007313    -0.05800
Br806      Br  0.27189993  0.52043676  0.98399050    -0.00200
Br807      Br  0.37165659  0.70000593  0.04898747     0.00300
Br808      Br  0.23849229  0.66111790  0.95842424    -0.04100
Br809      Br  0.21601605  0.58199104  0.10088406     0.00400
Br810      Br  0.30592216  0.59269570  0.96101222    -0.03400
Br811      Br  0.32928158  0.63203299  0.06806220    -0.04300
Br812      Br  0.29006562  0.71971704  0.92991590    -0.00300
C813        C  0.21033168  0.28147872  0.49231195     0.01100
C814        C  0.23988827  0.27942673  0.51138617     0.03900
C815        C  0.25431835  0.30842812  0.52370125    -0.12100
C816        C  0.23908166  0.33934108  0.51691554     0.23200
C817        C  0.21118179  0.34155524  0.49557407    -0.12700
C818        C  0.19658254  0.31262513  0.48365874     0.04600
C819        C  0.24790102  0.36847508  0.53683429     0.27100
C820        C  0.23128154  0.37341699  0.56739894    -0.13400
C821        C  0.23631548  0.40258754  0.58522103     0.05100
C822        C  0.25789103  0.42718558  0.57233034    -0.09400
C823        C  0.27350047  0.42267791  0.54097109     0.06000
C824        C  0.26919080  0.39295597  0.52371787    -0.13700
Br825      Br  0.19103112  0.38416427  0.48552093    -0.05800
Br826      Br  0.25943038  0.23675447  0.52205110    -0.00200
Br827      Br  0.21298549  0.40844556  0.62698691     0.00300
Br828      Br  0.29140225  0.38600037  0.48159125    -0.04100
Br829      Br  0.15512790  0.31566777  0.45962436     0.00400
Br830      Br  0.29341748  0.30583591  0.55178926    -0.03400
Br831      Br  0.20044144  0.34048442  0.58416115    -0.04300
Br832      Br  0.29733842  0.45865096  0.51952377    -0.00300
C833        C  0.00823467  0.28912746  0.70273578     0.01100
C834        C  0.03127774  0.26272122  0.70145553     0.03900
C835        C  0.04185741  0.25075292  0.67031999    -0.12100
C836        C  0.02909028  0.26483521  0.64027721     0.23200
C837        C  0.00514994  0.29038919  0.64151498    -0.12700
C838        C  0.99482066  0.30262994  0.67265691     0.04600
C839        C  0.04244540  0.25399986  0.60753648     0.27100
C840        C  0.06843034  0.27189018  0.59214613    -0.13400
C841        C  0.08389292  0.25959730  0.56329862     0.05100
C842        C  0.07409475  0.22888355  0.55021220    -0.09400
C843        C  0.04676341  0.21204911  0.56446214     0.06000
C844        C  0.03072923  0.22481598  0.59285787    -0.13700
Br845      Br  0.98779021  0.30955751  0.60032007    -0.05800
Br846      Br  0.04835828  0.24295401  0.74252336    -0.00200
Br847      Br  0.11909917  0.28458044  0.54217183     0.00300
Br848      Br  0.99382563  0.20152000  0.61289712    -0.04100
Br849      Br  0.96437431  0.33963047  0.67365617     0.00400
Br850      Br  0.07504800  0.21605689  0.66871888    -0.03400
Br851      Br  0.08416593  0.31222844  0.61188299    -0.04300
Br852      Br  0.03343599  0.16982903  0.54730121    -0.00300
C853        C  0.87938323  0.03852096  0.37132309     0.01100
C854        C  0.87624131  0.07240820  0.37907853     0.03900
C855        C  0.90403995  0.08991610  0.39083069    -0.12100
C856        C  0.93542755  0.07422059  0.39315539     0.23200
C857        C  0.93878512  0.04069809  0.38464245    -0.12700
C858        C  0.91077423  0.02269760  0.37452073     0.04600
C859        C  0.96523524  0.09306078  0.40361107     0.27100
C860        C  0.98101177  0.11433368  0.38037134    -0.13400
C861        C  0.01024820  0.13096374  0.38940970     0.05100
C862        C  0.02460697  0.12562185  0.42160790    -0.09400
C863        C  0.00870420  0.10415966  0.44485596     0.06000
C864        C  0.97878160  0.08842553  0.43602566    -0.13700
Br865      Br  0.98188883  0.01929140  0.38735666    -0.05800
Br866      Br  0.83356902  0.09455655  0.37589447    -0.00200
Br867      Br  0.02972708  0.16174210  0.35738937     0.00300
Br868      Br  0.95652434  0.05976793  0.46800021    -0.04100
Br869      Br  0.91570882  0.97613413  0.36522765     0.00400
Br870      Br  0.89899149  0.13494214  0.40548208    -0.03400
Br871      Br  0.96289693  0.11989164  0.33563688    -0.04300
Br872      Br  0.02899833  0.09381987  0.48774080    -0.00300
C873        C  0.13976102  0.27135201  0.34988326     0.01100
C874        C  0.13027954  0.30490151  0.35269462     0.03900
C875        C  0.13799291  0.32778540  0.32688627    -0.12100
C876        C  0.15139931  0.31660574  0.29648695     0.23200
C877        C  0.15878056  0.28279247  0.29268637    -0.12700
C878        C  0.15492203  0.26066744  0.31989766     0.04600
C879        C  0.15819963  0.34019808  0.26848059     0.27100
C880        C  0.13174010  0.35442813  0.24993414    -0.13400
C881        C  0.13833284  0.37646818  0.22309683     0.05100
C882        C  0.17163266  0.38179914  0.21233560    -0.09400
C883        C  0.19804614  0.36596637  0.23029553     0.06000
C884        C  0.19130835  0.34696344  0.25934362    -0.13700
Br885      Br  0.17389640  0.26664940  0.24991597    -0.05800
Br886      Br  0.10348354  0.31921258  0.38972411    -0.00200
Br887      Br  0.10101638  0.40007461  0.20290480     0.00300
Br888      Br  0.22753704  0.32966955  0.28673364    -0.04100
Br889      Br  0.17256224  0.21635192  0.31599669     0.00400
Br890      Br  0.13053045  0.37450220  0.33326559    -0.03400
Br891      Br  0.08627770  0.34301516  0.26085060    -0.04300
Br892      Br  0.24334871  0.36657846  0.21416944    -0.00300
C893        C  0.12770350  0.09587608  0.54143950     0.01100
C894        C  0.12450360  0.06670596  0.52281170     0.03900
C895        C  0.12132961  0.03595287  0.53952175    -0.12100
C896        C  0.12205166  0.03418869  0.57481065     0.23200
C897        C  0.12629183  0.06321843  0.59338006    -0.12700
C898        C  0.12804539  0.09413717  0.57674762     0.04600
C899        C  0.11208001  0.00314170  0.59226962     0.27100
C900        C  0.07872429  0.99966150  0.60195801    -0.13400
C901        C  0.06820622  0.97088702  0.61893024     0.05100
C902        C  0.09081870  0.94394497  0.62458585    -0.09400
C903        C  0.12445589  0.94753023  0.61419816     0.06000
C904        C  0.13500133  0.97725510  0.59843172    -0.13700
Br905      Br  0.12809249  0.06059250  0.64169979    -0.05800
Br906      Br  0.12399175  0.06875135  0.47438527    -0.00200
Br907      Br  0.02184810  0.96959667  0.63251965     0.00300
Br908      Br  0.18069104  0.98271639  0.58455308    -0.04100
Br909      Br  0.12684285  0.13428180  0.60226840     0.00400
Br910      Br  0.11421551  0.99632707  0.51425224    -0.03400
Br911      Br  0.04684916  0.03422730  0.59015440    -0.04300
Br912      Br  0.15695091  0.91284212  0.62240849    -0.00300
C913        C  0.39915878  0.89237362  0.04633685     0.01100
C914        C  0.37157339  0.90421383  0.06444853     0.03900
C915        C  0.37479403  0.93237487  0.08450427    -0.12100
C916        C  0.40558220  0.94886600  0.08632193     0.23200
C917        C  0.43351254  0.93604440  0.06949037    -0.12700
C918        C  0.43030679  0.90786255  0.04956546     0.04600
C919        C  0.40850267  0.98032921  0.10487094     0.27100
C920        C  0.39950429  0.01066816  0.08916102    -0.13400
C921        C  0.40388782  0.04071309  0.10605017     0.05100
C922        C  0.41753155  0.04052709  0.13877877    -0.09400
C923        C  0.42524904  0.00990865  0.15485959     0.06000
C924        C  0.42119147  0.98002476  0.13778584    -0.13700
Br925      Br  0.47583031  0.95816262  0.07250011    -0.05800
Br926      Br  0.32925560  0.88219076  0.06106796    -0.00200
Br927      Br  0.39209055  0.08190442  0.08365937     0.00300
Br928      Br  0.43342390  0.93846544  0.15923062    -0.04100
Br929      Br  0.46808509  0.89185383  0.02471666     0.00400
Br930      Br  0.33687618  0.94919206  0.10856707    -0.03400
Br931      Br  0.38198630  0.01087377  0.04402142    -0.04300
Br932      Br  0.43922931  0.00846416  0.20125440    -0.00300
C933        C  0.35372275  0.14241871  0.29644669     0.01100
C934        C  0.34290935  0.11338251  0.31305534     0.03900
C935        C  0.31401780  0.11413213  0.33275236    -0.12100
C936        C  0.29537205  0.14362371  0.33466371     0.23200
C937        C  0.30732686  0.17311448  0.31962056    -0.12700
C938        C  0.33717767  0.17266011  0.30141548     0.04600
C939        C  0.26366152  0.14405712  0.35328119     0.27100
C940        C  0.23380820  0.13476532  0.33757956    -0.13400
C941        C  0.20313820  0.13954028  0.35387371     0.05100
C942        C  0.20241628  0.15482458  0.38556991    -0.09400
C943        C  0.23292522  0.16019425  0.40268714     0.06000
C944        C  0.26336757  0.15492399  0.38642552    -0.13700
Br945      Br  0.28209096  0.21374320  0.32269666    -0.05800
Br946      Br  0.36781168  0.07274216  0.30863779    -0.00200
Br947      Br  0.16276823  0.12639450  0.33135699     0.00300
Br948      Br  0.30504701  0.16357260  0.40890698    -0.04100
Br949      Br  0.35519325  0.21313811  0.28267212     0.00400
Br950      Br  0.29954417  0.07491066  0.35672877    -0.03400
Br951      Br  0.23506631  0.11698932  0.29300741    -0.04300
Br952      Br  0.23393487  0.17430036  0.44867202    -0.00300
C953        C  0.37294143  0.21346323  0.17703025     0.01100
C954        C  0.39127487  0.23660603  0.15773350     0.03900
C955        C  0.37604227  0.26612087  0.14576048    -0.12100
C956        C  0.34288655  0.27367528  0.15447455     0.23200
C957        C  0.32450222  0.25063906  0.17383830    -0.12700
C958        C  0.33911770  0.22022217  0.18414700     0.04600
C959        C  0.32740971  0.30583888  0.14341384     0.27100
C960        C  0.33513220  0.33526522  0.16020270    -0.13400
C961        C  0.32016234  0.36550475  0.15005508     0.05100
C962        C  0.29629036  0.36642449  0.12404233    -0.09400
C963        C  0.28817559  0.33696552  0.10761638     0.06000
C964        C  0.30447037  0.30699509  0.11652057    -0.13700
Br965      Br  0.27947903  0.26126182  0.18695927    -0.05800
Br966      Br  0.43703288  0.22759695  0.14669004    -0.00200
Br967      Br  0.33206968  0.40579025  0.17206527     0.00300
Br968      Br  0.29535641  0.26737930  0.09199635    -0.04100
Br969      Br  0.31263245  0.18799494  0.20825023     0.00400
Br970      Br  0.40034494  0.29611606  0.11680663    -0.03400
Br971      Br  0.36536698  0.33393909  0.19791303    -0.04300
Br972      Br  0.25306436  0.33729346  0.07458448    -0.00300
C973        C  0.64294712  0.08106834  0.97844026     0.01100
C974        C  0.64349628  0.06194241  0.00870993     0.03900
C975        C  0.62310450  0.07087554  0.03599093    -0.12100
C976        C  0.60317282  0.09972789  0.03404932     0.23200
C977        C  0.60266423  0.11886500  0.00420325    -0.12700
C978        C  0.62124200  0.10895760  0.97617930     0.04600
C979        C  0.58279632  0.11032568  0.06330591     0.27100
C980        C  0.54790708  0.10685689  0.06272890    -0.13400
C981        C  0.52839215  0.11903987  0.08913135     0.05100
C982        C  0.54371730  0.13245086  0.11791851    -0.09400
C983        C  0.57887289  0.13541359  0.11860098     0.06000
C984        C  0.59808935  0.12536400  0.09095210    -0.13700
Br985      Br  0.57724450  0.15966743  0.00222771    -0.05800
Br986      Br  0.67341895  0.02462527  0.01444564    -0.00200
Br987      Br  0.48043488  0.11872466  0.08444116     0.00300
Br988      Br  0.64563323  0.13222805  0.09076361    -0.04100
Br989      Br  0.61475778  0.13316484  0.93431632     0.00400
Br990      Br  0.62288345  0.04399673  0.07658783    -0.03400
Br991      Br  0.52681707  0.08479823  0.02579363    -0.04300
Br992      Br  0.60160655  0.15100056  0.15794820    -0.00300
C993        C  0.49101633  0.21342593  0.30715137     0.01100
C994        C  0.51137468  0.24166134  0.30921152     0.03900
C995        C  0.52277859  0.25246204  0.34066794    -0.12100
C996        C  0.51329462  0.23555229  0.37040814     0.23200
C997        C  0.49042558  0.20932151  0.36855323    -0.12700
C998        C  0.47987178  0.19784299  0.33707450     0.04600
C999        C  0.53152743  0.24177589  0.40242137     0.27100
C1000       C  0.55896580  0.22144425  0.41118402    -0.13400
C1001       C  0.57968796  0.22959778  0.43832331     0.05100
C1002       C  0.57325279  0.25826127  0.45717466    -0.09400
C1003       C  0.54393111  0.27686954  0.45029387     0.06000
C1004       C  0.52326824  0.26871787  0.42287007    -0.13700
Br1005     Br  0.47543121  0.18777879  0.40931305    -0.05800
Br1006     Br  0.52412268  0.26514722  0.26875875    -0.00200
Br1007     Br  0.61716693  0.20123222  0.44940601     0.00300
Br1008     Br  0.48437501  0.29515102  0.41226660    -0.04100
Br1009     Br  0.45319220  0.15846761  0.33523413     0.00400
Br1010     Br  0.55321153  0.28913267  0.34298586    -0.03400
Br1011     Br  0.56909390  0.18304610  0.38477400    -0.04300
Br1012     Br  0.53307808  0.31495063  0.47667565    -0.00300
C1013       C  0.68900863  0.99114969  0.29561834     0.01100
C1014       C  0.68795110  0.01582834  0.27020748     0.03900
C1015       C  0.65727120  0.02918909  0.25957146    -0.12100
C1016       C  0.62744600  0.01727100  0.27367646     0.23200
C1017       C  0.62819314  0.99055453  0.29680945    -0.12700
C1018       C  0.65899387  0.97764009  0.30808516     0.04600
C1019       C  0.59582381  0.03478310  0.26581025     0.27100
C1020       C  0.58540582  0.06096178  0.28619679    -0.13400
C1021       C  0.55895183  0.08169075  0.27575025     0.05100
C1022       C  0.54335392  0.07671977  0.24447349    -0.09400
C1023       C  0.55296410  0.04955665  0.22481115     0.06000
C1024       C  0.57871262  0.02824195  0.23588119    -0.13700
Br1025     Br  0.58690590  0.97292560  0.31390560    -0.05800
Br1026     Br  0.72873453  0.03145707  0.25010135    -0.00200
Br1027     Br  0.54515646  0.11779297  0.30368974     0.00300
Br1028     Br  0.59256585  0.99150350  0.20892174    -0.04100
Br1029     Br  0.65965588  0.94342675  0.34238215     0.00400
Br1030     Br  0.65608717  0.06513180  0.22694915    -0.03400
Br1031     Br  0.60924617  0.06988265  0.32716097    -0.04300
Br1032     Br  0.53451094  0.04406336  0.18052298    -0.00300
loop_ 
_geom_bond_atom_site_label_1 
_geom_bond_atom_site_label_2 
_geom_bond_distance 
_geom_bond_site_symmetry_2 
_ccdc_geom_bond_type 
O1           Ni7   1.944       .  S
O1           C22   1.277       .  A
O2          Ni25   1.903       .  S
O2           C11   1.270       .  A
O3           Ni7   1.904       .  S
O3          Ni25   1.907       .  S
O3          Ni19   1.921       .  S
O3           H26   0.961       .  S
C4           O21   1.275       .  A
C4           O13   1.277       .  A
C4          C933   1.462       .  S
O5          Ni24   1.940       .  S
O5           C11   1.275       .  A
O6          Ni24   1.923       .  S
O6            C8   1.273       .  A
Ni7          O10   1.942       .  S
Ni7          O12   1.907       .  S
C8           O18   1.275       .  A
C8          C953   1.489       .  S
O9          Ni25   1.906       .  S
O9           C15   1.270       .  A
O10          C15   1.279       .  A
C11         C922   1.486       .  S
O12          C14   1.270       .  A
O13         Ni24   1.921       .  S
C14          O20   1.275       .  A
C14        C1022   1.476       .  S
C15         C982   1.495       .  S
H16          O17   0.966       .  S
O17         Ni25   1.891       .  S
O17         Ni19   1.895       .  S
O17         Ni24   1.901       .  S
O18         Ni19   1.940       .  S
Ni19         O23   1.916       .  S
Ni19         O21   1.909       .  S
O20         Ni25   1.929       .  S
C22          O23   1.271       .  A
C22         C993   1.489       .  S
O27         Ni33   1.921       .  S
O27          C48   1.271       .  A
O28         Ni51   1.912       .  S
O28          C37   1.271       .  A
O29         Ni33   1.893       .  S
O29         Ni51   1.903       .  S
O29         Ni45   1.923       .  S
O29          H52   0.964       .  S
C30          O47   1.281       .  A
C30          O39   1.281       .  A
C30         C873   1.482       .  S
O31         Ni50   1.930       .  S
O31          C37   1.271       .  A
O32         Ni50   1.921       .  S
O32          C34   1.267       .  A
Ni33         O36   1.919       .  S
Ni33         O38   1.905       .  S
C34          O44   1.265       .  A
C34         C942   1.488       .  S
O35         Ni51   1.913       .  S
O35          C41   1.272       .  A
O36          C41   1.274       .  A
C37         C862   1.485       .  S
O38          C40   1.271       .  A
O39         Ni50   1.933       .  S
C40          O46   1.279       .  A
C40         C842   1.478       .  S
C41         C893   1.471       .  S
H42          O43   0.968       .  S
O43         Ni51   1.894       .  S
O43         Ni45   1.893       .  S
O43         Ni50   1.897       .  S
O44         Ni45   1.917       .  S
Ni45         O49   1.907       .  S
Ni45         O47   1.915       .  S
O46         Ni51   1.939       .  S
C48          O49   1.268       .  A
C48         C813   1.469       .  S
O53         Ni59   1.941       .  S
O53          C74   1.277       .  A
O54         Ni77   1.900       .  S
O54          C63   1.267       .  A
O55         Ni59   1.899       .  S
O55         Ni77   1.906       .  S
O55         Ni71   1.931       .  S
O55          H78   0.965       .  S
C56          O73   1.282       .  A
C56          O65   1.281       .  A
C56         C762   1.498       .  S
O57         Ni76   1.940       .  S
O57          C63   1.273       .  A
O58         Ni76   1.907       .  S
O58          C60   1.267       .  A
Ni59         O62   1.942       .  S
Ni59         O64   1.910       .  S
C60          O70   1.273       .  A
C60         C733   1.490       .  S
O61         Ni77   1.914       .  S
O61          C67   1.270       .  A
O62          C67   1.278       .  A
C63         C882   1.491       .  S
O64          C66   1.272       .  A
O65         Ni76   1.932       .  S
C66          O72   1.277       .  A
C66         C782   1.491       .  S
C67         C962   1.483       .  S
H68          O69   0.967       .  S
O69         Ni77   1.890       .  S
O69         Ni71   1.888       .  S
O69         Ni76   1.893       .  S
O70         Ni71   1.937       .  S
Ni71         O75   1.911       .  S
Ni71         O73   1.932       .  S
O72         Ni77   1.939       .  S
C74          O75   1.271       .  A
C74         C793   1.482       .  S
O79         Ni85   1.932       .  S
O79         C100   1.274       .  A
O80        Ni103   1.899       .  S
O80          C89   1.268       .  A
O81         Ni85   1.895   1_655  S
O81        Ni103   1.894       .  S
O81         Ni97   1.918       .  S
O81         H104   0.962       .  S
C82          O99   1.277       .  A
C82          O91   1.279       .  A
C82         C722   1.480       .  S
O83        Ni102   1.950       .  S
O83          C89   1.279       .  A
O84        Ni102   1.933       .  S
O84          C86   1.276       .  A
Ni85         O88   1.927       .  S
Ni85         O90   1.905       .  S
C86          O96   1.271       .  A
C86         C673   1.494       .  S
O87        Ni103   1.918   1_455  S
O87          C93   1.276       .  A
O88          C93   1.277       .  A
C89         C702   1.484       .  S
O90          C92   1.268       .  A
O91        Ni102   1.937       .  S
C92          O98   1.278       .  A
C92         C662   1.479       .  S
C93         C742   1.478       .  S
H94          O95   0.967       .  S
O95        Ni103   1.906       .  S
O95         Ni97   1.897       .  S
O95        Ni102   1.907       .  S
O96         Ni97   1.933       .  S
Ni97        O101   1.909       .  S
Ni97         O99   1.915       .  S
O98        Ni103   1.942   1_455  S
C100        O101   1.270   1_455  A
C100        C833   1.478       .  S
O105       Ni111   1.933       .  S
O105        C126   1.274   1_545  A
O106       Ni129   1.888       .  S
O106        C115   1.266       .  A
O107       Ni111   1.901   1_565  S
O107       Ni129   1.897       .  S
O107       Ni123   1.922       .  S
O107        H130   0.966       .  S
C108        O125   1.276       .  A
C108        O117   1.275       .  A
C108        C573   1.473       .  S
O109       Ni128   1.932       .  S
O109        C115   1.274       .  A
O110       Ni128   1.921       .  S
O110        C112   1.273       .  A
Ni111       O114   1.935       .  S
Ni111       O116   1.903       .  S
C112        O122   1.272       .  A
C112        C593   1.512       .  S
O113       Ni129   1.903       .  S
O113        C119   1.270   1_565  A
O114        C119   1.278       .  A
C115        C613   1.485       .  S
O116        C118   1.269       .  A
O117       Ni128   1.927       .  S
C118        O124   1.279   1_545  A
C118        C642   1.484       .  S
C119        C853   1.481       .  S
H120        O121   0.966       .  S
O121       Ni129   1.903       .  S
O121       Ni123   1.892       .  S
O121       Ni128   1.911       .  S
O122       Ni123   1.937       .  S
Ni123       O127   1.906       .  S
Ni123       O125   1.916       .  S
O124       Ni129   1.947       .  S
C126        O127   1.268       .  A
C126       C1013   1.475       .  S
O131       Ni137   1.933       .  S
O131        C152   1.274   1_455  A
O132       Ni155   1.894       .  S
O132        C141   1.267       .  A
O133       Ni137   1.891       .  S
O133       Ni155   1.899       .  S
O133       Ni149   1.918       .  S
O133        H156   0.966       .  S
C134        O151   1.280   1_455  A
C134        O143   1.279       .  A
C134        C622   1.468   1_455  S
O135       Ni154   1.926       .  S
O135        C141   1.272       .  A
O136       Ni154   1.922       .  S
O136        C138   1.270       .  A
Ni137       O140   1.925       .  S
Ni137       O142   1.902       .  S
C138        O148   1.264       .  A
C138        C902   1.496       .  S
O139       Ni155   1.908       .  S
O139        C145   1.270       .  A
O140        C145   1.275       .  A
C141        C533   1.478       .  S
O142        C144   1.271       .  A
O143       Ni154   1.924       .  S
C144        O150   1.277       .  A
C144        C502   1.482       .  S
C145        C553   1.464       .  S
H146        O147   0.967       .  S
O147       Ni155   1.894       .  S
O147       Ni149   1.878       .  S
O147       Ni154   1.902       .  S
O148       Ni149   1.908       .  S
Ni149       O153   1.905       .  S
Ni149       O151   1.916   1_455  S
O150       Ni155   1.939       .  S
C152        O153   1.267   1_655  A
C152        C513   1.477       .  S
O157       Ni163   1.931   1_554  S
O157        C178   1.274       .  A
O158       Ni181   1.893       .  S
O158        C167   1.265       .  A
O159       Ni163   1.903       .  S
O159       Ni181   1.900       .  S
O159       Ni175   1.924       .  S
O159        H182   0.963       .  S
C160        O177   1.279       .  A
C160        O169   1.277   1_554  A
C160        C913   1.475       .  S
O161       Ni180   1.931       .  S
O161        C167   1.270       .  A
O162       Ni180   1.906       .  S
O162        C164   1.268       .  A
Ni163       O166   1.930       .  S
Ni163       O168   1.907       .  S
C164        O174   1.275       .  A
C164        C453   1.485       .  S
O165       Ni181   1.910       .  S
O165        C171   1.271       .  A
O166        C171   1.276       .  A
C167        C562   1.471       .  S
O168        C170   1.270       .  A
O169       Ni180   1.927       .  S
C170        O176   1.274       .  A
C170        C802   1.483       .  S
C171        C473   1.474       .  S
H172        O173   0.966       .  S
O173       Ni181   1.899       .  S
O173       Ni175   1.899       .  S
O173       Ni180   1.900       .  S
O174       Ni175   1.941       .  S
Ni175       O179   1.914   1_556  S
Ni175       O177   1.923   1_556  S
O176       Ni181   1.933       .  S
C178        O179   1.272       .  A
C178        C433   1.480       .  S
O183       Ni189   1.926       .  S
O183        C204   1.272       .  A
O184       Ni207   1.911       .  S
O184        C193   1.271       .  A
O185       Ni189   1.895       .  S
O185       Ni207   1.905       .  S
O185       Ni201   1.917       .  S
O185        H208   0.966       .  S
C186        O203   1.278       .  A
C186        O195   1.280       .  A
C186        C393   1.499       .  S
O187       Ni206   1.935       .  S
O187        C193   1.273       .  A
O188       Ni206   1.916       .  S
O188        C190   1.267       .  A
Ni189       O192   1.917       .  S
Ni189       O194   1.912       .  S
C190        O200   1.267       .  A
C190        C413   1.483       .  S
O191       Ni207   1.906       .  S
O191        C197   1.272       .  A
O192        C197   1.273       .  A
C193        C482   1.487       .  S
O194        C196   1.271       .  A
O195       Ni206   1.937       .  S
C196        O202   1.277       .  A
C196        C653   1.478       .  S
C197        C542   1.466       .  S
H198        O199   0.966       .  S
O199       Ni207   1.891       .  S
O199       Ni201   1.888       .  S
O199       Ni206   1.896       .  S
O200       Ni201   1.926       .  S
Ni201       O205   1.901       .  S
Ni201       O203   1.916       .  S
O202       Ni207   1.940       .  S
C204        O205   1.267       .  A
C204        C822   1.478       .  S
O209       Ni215   1.931       .  S
O209        C230   1.275       .  A
O210       Ni233   1.893       .  S
O210        C219   1.268       .  A
O211       Ni215   1.887       .  S
O211       Ni233   1.886       .  S
O211       Ni227   1.932       .  S
O211        H234   0.966       .  S
C212        O229   1.287       .  A
C212        O221   1.274       .  A
C212        C422   1.500       .  S
O213       Ni232   1.922       .  S
O213        C219   1.271       .  A
O214       Ni232   1.926       .  S
O214        C216   1.274       .  A
Ni215       O218   1.940       .  S
Ni215       O220   1.915       .  S
C216        O226   1.270       .  A
C216        C362   1.489       .  S
O217       Ni233   1.929       .  S
O217        C223   1.276       .  A
O218        C223   1.279       .  A
C219        C582   1.473       .  S
O220        C222   1.272       .  A
O221       Ni232   1.908       .  S
C222        O228   1.278       .  A
C222        C442   1.489       .  S
C223        C382   1.508       .  S
H224        O225   0.966       .  S
O225       Ni233   1.910       .  S
O225       Ni227   1.893       .  S
O225       Ni232   1.893       .  S
O226       Ni227   1.921       .  S
Ni227       O231   1.907       .  S
Ni227       O229   1.949       .  S
O228       Ni233   1.939       .  S
C230        O231   1.273       .  A
C230        C773   1.472       .  S
O235       Ni241   1.950       .  S
O235        C256   1.280       .  A
O236       Ni259   1.905       .  S
O236        C245   1.268       .  A
O237       Ni241   1.892       .  S
O237       Ni259   1.901       .  S
O237       Ni253   1.924       .  S
O237        H260   0.950       .  S
C238        O255   1.279       .  A
C238        O247   1.275       .  A
C238        C333   1.470       .  S
O239       Ni258   1.920       .  S
O239        C245   1.270       .  A
O240       Ni258   1.916       .  S
O240        C242   1.270       .  A
Ni241       O244   1.946       .  S
Ni241       O246   1.913       .  S
C242        O252   1.274       .  A
C242        C713   1.491       .  S
O243       Ni259   1.924       .  S
O243        C249   1.276       .  A
O244        C249   1.282       .  A
C245        C402   1.473       .  S
O246        C248   1.271       .  A
O247       Ni258   1.920       .  S
C248        O254   1.278       .  A
C248       C1002   1.495       .  S
C249        C353   1.496       .  S
H250        O251   0.967       .  S
O251       Ni259   1.907       .  S
O251       Ni253   1.895       .  S
O251       Ni258   1.902       .  S
O252       Ni253   1.941       .  S
Ni253       O257   1.918       .  S
Ni253       O255   1.920       .  S
O254       Ni259   1.947       .  S
C256        O257   1.273       .  A
C256        C633   1.499       .  S
O261       Ni267   1.931       .  S
O261        C282   1.272   1_565  A
O262       Ni285   1.911       .  S
O262        C271   1.270       .  A
O263       Ni267   1.908   1_545  S
O263       Ni285   1.903       .  S
O263       Ni279   1.921       .  S
O263        H286   0.961       .  S
C264        O281   1.275       .  A
C264        O273   1.275       .  A
C264        C682   1.480       .  S
O265       Ni284   1.934       .  S
O265        C271   1.274       .  A
O266       Ni284   1.923       .  S
O266        C268   1.273       .  A
Ni267       O270   1.929       .  S
Ni267       O272   1.895       .  S
C268        O278   1.270       .  A
C268        C342   1.486       .  S
O269       Ni285   1.903       .  S
O269        C275   1.268   1_545  A
O270        C275   1.275       .  A
C271        C973   1.502       .  S
O272        C274   1.269       .  A
O273       Ni284   1.932       .  S
C274        O280   1.282       .  A
C274        C313   1.483       .  S
C275        C462   1.483       .  S
H276        O277   0.967       .  S
O277       Ni285   1.910       .  S
O277       Ni279   1.909       .  S
O277       Ni284   1.912       .  S
O278       Ni279   1.932       .  S
Ni279       O283   1.900       .  S
Ni279       O281   1.922       .  S
O280       Ni285   1.952   1_565  S
C282        O283   1.266       .  A
C282        C522   1.484   1_545  S
O287       Ni293   1.942   1_556  S
O287        C308   1.275       .  A
O288       Ni311   1.913       .  S
O288        C297   1.273       .  A
O289       Ni293   1.902       .  S
O289       Ni311   1.904       .  S
O289       Ni305   1.918       .  S
O289        H312   0.964       .  S
C290        O307   1.273       .  A
C290        O299   1.278   1_556  A
C290        C693   1.483       .  S
O291       Ni310   1.944       .  S
O291        C297   1.279       .  A
O292       Ni310   1.928       .  S
O292        C294   1.274       .  A
Ni293       O296   1.936       .  S
Ni293       O298   1.902       .  S
C294        O304   1.272       .  A
C294        C753   1.486       .  S
O295       Ni311   1.917       .  S
O295        C301   1.274       .  A
O296        C301   1.279       .  A
C297        C373   1.499       .  S
O298        C300   1.269       .  A
O299       Ni310   1.935       .  S
C300        O306   1.280       .  A
C300        C322   1.479       .  S
C301        C602   1.492       .  S
H302        O303   0.966       .  S
O303       Ni311   1.911       .  S
O303       Ni305   1.901       .  S
O303       Ni310   1.910       .  S
O304       Ni305   1.935       .  S
Ni305       O309   1.904   1_554  S
Ni305       O307   1.914   1_554  S
O306       Ni311   1.945       .  S
C308        O309   1.267       .  A
C308        C493   1.481       .  S
C313        C314   1.410       .  A
C313        C318   1.416       .  A
C314        C315   1.414       .  A
C314       Br326   1.928       .  S
C315        C316   1.413       .  A
C315       Br330   1.928       .  S
C316        C319   1.489       .  S
C316        C317   1.404       .  A
C317        C318   1.404       .  A
C317       Br325   1.931       .  S
C318       Br329   1.930       .  S
C319        C320   1.410       .  A
C319        C324   1.410   1_556  A
C320        C321   1.407       .  A
C320       Br331   1.931       .  S
C321        C322   1.410   1_556  A
C321       Br327   1.930       .  S
C322        C323   1.413       .  A
C323        C324   1.412       .  A
C323       Br332   1.929       .  S
C324       Br328   1.928       .  S
C333        C334   1.410       .  A
C333        C338   1.410       .  A
C334        C335   1.407       .  A
C334       Br346   1.928       .  S
C335        C336   1.408       .  A
C335       Br350   1.929       .  S
C336        C339   1.481       .  S
C336        C337   1.409       .  A
C337        C338   1.405       .  A
C337       Br345   1.932       .  S
C338       Br349   1.929       .  S
C339        C340   1.408       .  A
C339        C344   1.404       .  A
C340        C341   1.407       .  A
C340       Br351   1.932       .  S
C341        C342   1.415       .  A
C341       Br347   1.933       .  S
C342        C343   1.420       .  A
C343        C344   1.406       .  A
C343       Br352   1.927       .  S
C344       Br348   1.934       .  S
C353        C354   1.415       .  A
C353        C358   1.417       .  A
C354        C355   1.414       .  A
C354       Br366   1.929       .  S
C355        C356   1.410       .  A
C355       Br370   1.929       .  S
C356        C359   1.496       .  S
C356        C357   1.409       .  A
C357        C358   1.412       .  A
C357       Br365   1.931       .  S
C358       Br369   1.931       .  S
C359        C360   1.412       .  A
C359        C364   1.408       .  A
C360        C361   1.415       .  A
C360       Br371   1.926       .  S
C361        C362   1.414       .  A
C361       Br367   1.932       .  S
C362        C363   1.417       .  A
C363        C364   1.408       .  A
C363       Br372   1.934       .  S
C364       Br368   1.932       .  S
C373        C374   1.417       .  A
C373        C378   1.419       .  A
C374        C375   1.411       .  A
C374       Br386   1.932       .  S
C375        C376   1.410       .  A
C375       Br390   1.931       .  S
C376        C379   1.499       .  S
C376        C377   1.411       .  A
C377        C378   1.416       .  A
C377       Br385   1.931       .  S
C378       Br389   1.931       .  S
C379        C380   1.410       .  A
C379        C384   1.407       .  A
C380        C381   1.416       .  A
C380       Br391   1.931       .  S
C381        C382   1.424       .  A
C381       Br387   1.933       .  S
C382        C383   1.423       .  A
C383        C384   1.410       .  A
C383       Br392   1.933       .  S
C384       Br388   1.932       .  S
C393        C394   1.426       .  A
C393        C398   1.424       .  A
C394        C395   1.405       .  A
C394       Br406   1.938       .  S
C395        C396   1.402       .  A
C395       Br410   1.934       .  S
C396        C399   1.480       .  S
C396        C397   1.405       .  A
C397        C398   1.410       .  A
C397       Br405   1.932       .  S
C398       Br409   1.934       .  S
C399        C400   1.409       .  A
C399        C404   1.407       .  A
C400        C401   1.405       .  A
C400       Br411   1.930       .  S
C401        C402   1.408       .  A
C401       Br407   1.928       .  S
C402        C403   1.414       .  A
C403        C404   1.406       .  A
C403       Br412   1.933       .  S
C404       Br408   1.930       .  S
C413        C414   1.415       .  A
C413        C418   1.412       .  A
C414        C415   1.405       .  A
C414       Br426   1.931       .  S
C415        C416   1.408       .  A
C415       Br430   1.934       .  S
C416        C419   1.486       .  S
C416        C417   1.410       .  A
C417        C418   1.410       .  A
C417       Br425   1.929       .  S
C418       Br429   1.928       .  S
C419        C420   1.403       .  A
C419        C424   1.408       .  A
C420        C421   1.403       .  A
C420       Br431   1.937       .  S
C421        C422   1.427       .  A
C421       Br427   1.940       .  S
C422        C423   1.417       .  A
C423        C424   1.415       .  A
C423       Br432   1.920       .  S
C424       Br428   1.929       .  S
C433        C434   1.409       .  A
C433        C438   1.411       .  A
C434        C435   1.410       .  A
C434       Br446   1.928       .  S
C435        C436   1.412       .  A
C435       Br450   1.930       .  S
C436        C439   1.492       .  S
C436        C437   1.410       .  A
C437        C438   1.410       .  A
C437       Br445   1.928       .  S
C438       Br449   1.928       .  S
C439        C440   1.409       .  A
C439        C444   1.409       .  A
C440        C441   1.408       .  A
C440       Br451   1.933       .  S
C441        C442   1.416       .  A
C441       Br447   1.930       .  S
C442        C443   1.415       .  A
C443        C444   1.412       .  A
C443       Br452   1.929       .  S
C444       Br448   1.928       .  S
C453        C454   1.414       .  A
C453        C458   1.416       .  A
C454        C455   1.410       .  A
C454       Br466   1.926       .  S
C455        C456   1.408       .  A
C455       Br470   1.930       .  S
C456        C459   1.484       .  S
C456        C457   1.407       .  A
C457        C458   1.406       .  A
C457       Br465   1.932       .  S
C458       Br469   1.934       .  S
C459        C460   1.406       .  A
C459        C464   1.409       .  A
C460        C461   1.404       .  A
C460       Br471   1.933       .  S
C461        C462   1.419       .  A
C461       Br467   1.935       .  S
C462        C463   1.413       .  A
C463        C464   1.410       .  A
C463       Br472   1.931       .  S
C464       Br468   1.928       .  S
C473        C474   1.410       .  A
C473        C478   1.410       .  A
C474        C475   1.405       .  A
C474       Br486   1.930       .  S
C475        C476   1.409       .  A
C475       Br490   1.931       .  S
C476        C479   1.484       .  S
C476        C477   1.410       .  A
C477        C478   1.409       .  A
C477       Br485   1.928       .  S
C478       Br489   1.929       .  S
C479        C480   1.405       .  A
C479        C484   1.409       .  A
C480        C481   1.405       .  A
C480       Br491   1.933       .  S
C481        C482   1.418       .  A
C481       Br487   1.935       .  S
C482        C483   1.416       .  A
C483        C484   1.412       .  A
C483       Br492   1.931       .  S
C484       Br488   1.930       .  S
C493        C494   1.414       .  A
C493        C498   1.411       .  A
C494        C495   1.405       .  A
C494       Br506   1.924       .  S
C495        C496   1.405       .  A
C495       Br510   1.932       .  S
C496        C499   1.482       .  S
C496        C497   1.409       .  A
C497        C498   1.409       .  A
C497       Br505   1.929   1_655  S
C498       Br509   1.929   1_655  S
C499        C500   1.409   1_655  A
C499        C504   1.407       .  A
C500        C501   1.412       .  A
C500       Br511   1.928       .  S
C501        C502   1.413       .  A
C501       Br507   1.925       .  S
C502        C503   1.412   1_455  A
C503        C504   1.402       .  A
C503       Br512   1.931       .  S
C504       Br508   1.933       .  S
C513        C514   1.411       .  A
C513        C518   1.409       .  A
C514        C515   1.406       .  A
C514       Br526   1.923       .  S
C515        C516   1.407       .  A
C515       Br530   1.931       .  S
C516        C519   1.483       .  S
C516        C517   1.410       .  A
C517        C518   1.408       .  A
C517       Br525   1.928   1_565  S
C518       Br529   1.930   1_655  S
C519        C520   1.408   1_565  A
C519        C524   1.408       .  A
C520        C521   1.410       .  A
C520       Br531   1.928       .  S
C521        C522   1.415   1_545  A
C521       Br527   1.931       .  S
C522        C523   1.416       .  A
C523        C524   1.405       .  A
C523       Br532   1.935       .  S
C524       Br528   1.935       .  S
C533        C534   1.419       .  A
C533        C538   1.416       .  A
C534        C535   1.403       .  A
C534       Br546   1.935       .  S
C535        C536   1.403       .  A
C535       Br550   1.933       .  S
C536        C539   1.471       .  S
C536        C537   1.406       .  A
C537        C538   1.403       .  A
C537       Br545   1.933       .  S
C538       Br549   1.933       .  S
C539        C540   1.407       .  A
C539        C544   1.406       .  A
C540        C541   1.404       .  A
C540       Br551   1.929       .  S
C541        C542   1.412       .  A
C541       Br547   1.933       .  S
C542        C543   1.410       .  A
C543        C544   1.399       .  A
C543       Br552   1.929       .  S
C544       Br548   1.933       .  S
C553        C554   1.407       .  A
C553        C558   1.408       .  A
C554        C555   1.404       .  A
C554       Br566   1.930       .  S
C555        C556   1.408       .  A
C555       Br570   1.930       .  S
C556        C559   1.475       .  S
C556        C557   1.408       .  A
C557        C558   1.404       .  A
C557       Br565   1.930       .  S
C558       Br569   1.928       .  S
C559        C560   1.407       .  A
C559        C564   1.406       .  A
C560        C561   1.405       .  A
C560       Br571   1.930       .  S
C561        C562   1.411       .  A
C561       Br567   1.929       .  S
C562        C563   1.412       .  A
C563        C564   1.403       .  A
C563       Br572   1.933       .  S
C564       Br568   1.931       .  S
C573        C574   1.410       .  A
C573        C578   1.410       .  A
C574        C575   1.409       .  A
C574       Br586   1.929       .  S
C575        C576   1.409       .  A
C575       Br590   1.928       .  S
C576        C579   1.479       .  S
C576        C577   1.406       .  A
C577        C578   1.401       .  A
C577       Br585   1.935       .  S
C578       Br589   1.924       .  S
C579        C580   1.410       .  A
C579        C584   1.406       .  A
C580        C581   1.404       .  A
C580       Br591   1.933       .  S
C581        C582   1.412       .  A
C581       Br587   1.933       .  S
C582        C583   1.413       .  A
C583        C584   1.405       .  A
C583       Br592   1.933       .  S
C584       Br588   1.928       .  S
C593        C594   1.424       .  A
C593        C598   1.428       .  A
C594        C595   1.414       .  A
C594       Br606   1.933       .  S
C595        C596   1.407       .  A
C595       Br610   1.931       .  S
C596        C599   1.496       .  S
C596        C597   1.406       .  A
C597        C598   1.413       .  A
C597       Br605   1.933       .  S
C598       Br609   1.938       .  S
C599        C600   1.410       .  A
C599        C604   1.409       .  A
C600        C601   1.413       .  A
C600       Br611   1.930       .  S
C601        C602   1.418       .  A
C601       Br607   1.933       .  S
C602        C603   1.416       .  A
C603        C604   1.410       .  A
C603       Br612   1.934       .  S
C604       Br608   1.929       .  S
C613        C614   1.420       .  A
C613        C618   1.418       .  A
C614        C615   1.405       .  A
C614       Br626   1.935       .  S
C615        C616   1.404       .  A
C615       Br630   1.932       .  S
C616        C619   1.477       .  S
C616        C617   1.407       .  A
C617        C618   1.405       .  A
C617       Br625   1.934       .  S
C618       Br629   1.934       .  S
C619        C620   1.406       .  A
C619        C624   1.410       .  A
C620        C621   1.399       .  A
C620       Br631   1.933       .  S
C621        C622   1.410       .  A
C621       Br627   1.929   1_655  S
C622        C623   1.409       .  A
C623        C624   1.408       .  A
C623       Br632   1.929       .  S
C624       Br628   1.928       .  S
C633        C634   1.420       .  A
C633        C638   1.415       .  A
C634        C635   1.414       .  A
C634       Br646   1.922       .  S
C635        C636   1.408       .  A
C635       Br650   1.931       .  S
C636        C639   1.497       .  S
C636        C637   1.410       .  A
C637        C638   1.411       .  A
C637       Br645   1.930       .  S
C638       Br649   1.931       .  S
C639        C640   1.412       .  A
C639        C644   1.411       .  A
C640        C641   1.414       .  A
C640       Br651   1.928       .  S
C641        C642   1.413       .  A
C641       Br647   1.929       .  S
C642        C643   1.410       .  A
C643        C644   1.410       .  A
C643       Br652   1.930       .  S
C644       Br648   1.930       .  S
C653        C654   1.406       .  A
C653        C658   1.408       .  A
C654        C655   1.410       .  A
C654       Br666   1.927       .  S
C655        C656   1.413       .  A
C655       Br670   1.928       .  S
C656        C659   1.492       .  S
C656        C657   1.410       .  A
C657        C658   1.409       .  A
C657       Br665   1.928       .  S
C658       Br669   1.926       .  S
C659        C660   1.412       .  A
C659        C664   1.410       .  A
C660        C661   1.409       .  A
C660       Br671   1.929       .  S
C661        C662   1.409       .  A
C661       Br667   1.930       .  S
C662        C663   1.412       .  A
C663        C664   1.411       .  A
C663       Br672   1.929       .  S
C664       Br668   1.929       .  S
C673        C674   1.419       .  A
C673        C678   1.416       .  A
C674        C675   1.411       .  A
C674       Br686   1.927       .  S
C675        C676   1.406       .  A
C675       Br690   1.931       .  S
C676        C679   1.491       .  S
C676        C677   1.409       .  A
C677        C678   1.412       .  A
C677       Br685   1.932       .  S
C678       Br689   1.931       .  S
C679        C680   1.412       .  A
C679        C684   1.408       .  A
C680        C681   1.412       .  A
C680       Br691   1.930       .  S
C681        C682   1.411       .  A
C681       Br687   1.925       .  S
C682        C683   1.410       .  A
C683        C684   1.407       .  A
C683       Br692   1.930       .  S
C684       Br688   1.927       .  S
C693        C694   1.414       .  A
C693        C698   1.410       .  A
C694        C695   1.409       .  A
C694       Br706   1.930       .  S
C695        C696   1.409       .  A
C695       Br710   1.930       .  S
C696        C699   1.489       .  S
C696        C697   1.410       .  A
C697        C698   1.409       .  A
C697       Br705   1.929       .  S
C698       Br709   1.929       .  S
C699        C700   1.408       .  A
C699        C704   1.411       .  A
C700        C701   1.409       .  A
C700       Br711   1.931       .  S
C701        C702   1.414       .  A
C701       Br707   1.931       .  S
C702        C703   1.410       .  A
C703        C704   1.410       .  A
C703       Br712   1.927       .  S
C704       Br708   1.929       .  S
C713        C714   1.415       .  A
C713        C718   1.417       .  A
C714        C715   1.413       .  A
C714       Br726   1.926       .  S
C715        C716   1.408       .  A
C715       Br730   1.930       .  S
C716        C719   1.490       .  S
C716        C717   1.408       .  A
C717        C718   1.409       .  A
C717       Br725   1.932       .  S
C718       Br729   1.933       .  S
C719        C720   1.411       .  A
C719        C724   1.409       .  A
C720        C721   1.410       .  A
C720       Br731   1.929       .  S
C721        C722   1.412       .  A
C721       Br727   1.930       .  S
C722        C723   1.411       .  A
C723        C724   1.408       .  A
C723       Br732   1.931       .  S
C724       Br728   1.929       .  S
C733        C734   1.418       .  A
C733        C738   1.416       .  A
C734        C735   1.410       .  A
C734       Br746   1.931       .  S
C735        C736   1.406   1_554  A
C735       Br750   1.930       .  S
C736        C739   1.484       .  S
C736        C737   1.407       .  A
C737        C738   1.407   1_556  A
C737       Br745   1.934       .  S
C738       Br749   1.929       .  S
C739        C740   1.409       .  A
C739        C744   1.408       .  A
C740        C741   1.409       .  A
C740       Br751   1.929       .  S
C741        C742   1.414       .  A
C741       Br747   1.931       .  S
C742        C743   1.411       .  A
C743        C744   1.405       .  A
C743       Br752   1.930   1_455  S
C744       Br748   1.931       .  S
C753        C754   1.413       .  A
C753        C758   1.410       .  A
C754        C755   1.410       .  A
C754       Br766   1.927       .  S
C755        C756   1.410   1_655  A
C755       Br770   1.932   1_655  S
C756        C759   1.494       .  S
C756        C757   1.411       .  A
C757        C758   1.413   1_455  A
C757       Br765   1.927       .  S
C758       Br769   1.926       .  S
C759        C760   1.405       .  A
C759        C764   1.412       .  A
C760        C761   1.407       .  A
C760       Br771   1.931       .  S
C761        C762   1.420       .  A
C761       Br767   1.935       .  S
C762        C763   1.418       .  A
C763        C764   1.416       .  A
C763       Br772   1.930       .  S
C764       Br768   1.929       .  S
C773        C774   1.409       .  A
C773        C778   1.406       .  A
C774        C775   1.407       .  A
C774       Br786   1.931       .  S
C775        C776   1.410       .  A
C775       Br790   1.930       .  S
C776        C779   1.489       .  S
C776        C777   1.413       .  A
C777        C778   1.409       .  A
C777       Br785   1.929       .  S
C778       Br789   1.928       .  S
C779        C780   1.409       .  A
C779        C784   1.409       .  A
C780        C781   1.412       .  A
C780       Br791   1.930       .  S
C781        C782   1.417       .  A
C781       Br787   1.923       .  S
C782        C783   1.413       .  A
C783        C784   1.404       .  A
C783       Br792   1.932       .  S
C784       Br788   1.932       .  S
C793        C794   1.409       .  A
C793        C798   1.412       .  A
C794        C795   1.410   1_554  A
C794       Br806   1.928   1_554  S
C795        C796   1.413   1_556  A
C795       Br810   1.930       .  S
C796        C799   1.492       .  S
C796        C797   1.410       .  A
C797        C798   1.410       .  A
C797       Br805   1.929       .  S
C798       Br809   1.928       .  S
C799        C800   1.411       .  A
C799        C804   1.411   1_554  A
C800        C801   1.405       .  A
C800       Br811   1.932       .  S
C801        C802   1.411   1_554  A
C801       Br807   1.932       .  S
C802        C803   1.415       .  A
C803        C804   1.413       .  A
C803       Br812   1.931       .  S
C804       Br808   1.928       .  S
C813        C814   1.409       .  A
C813        C818   1.407       .  A
C814        C815   1.407       .  A
C814       Br826   1.929       .  S
C815        C816   1.409       .  A
C815       Br830   1.927       .  S
C816        C819   1.477       .  S
C816        C817   1.407       .  A
C817        C818   1.401       .  A
C817       Br825   1.932       .  S
C818       Br829   1.921       .  S
C819        C820   1.408       .  A
C819        C824   1.406       .  A
C820        C821   1.403       .  A
C820       Br831   1.934       .  S
C821        C822   1.413       .  A
C821       Br827   1.931       .  S
C822        C823   1.415       .  A
C823        C824   1.407       .  A
C823       Br832   1.932       .  S
C824       Br828   1.929       .  S
C833        C834   1.410       .  A
C833        C838   1.412   1_455  A
C834        C835   1.407       .  A
C834       Br846   1.931       .  S
C835        C836   1.410       .  A
C835       Br850   1.930       .  S
C836        C839   1.486       .  S
C836        C837   1.408       .  A
C837        C838   1.408   1_455  A
C837       Br845   1.930   1_455  S
C838       Br849   1.926       .  S
C839        C840   1.409       .  A
C839        C844   1.409       .  A
C840        C841   1.406       .  A
C840       Br851   1.932       .  S
C841        C842   1.413       .  A
C841       Br847   1.929       .  S
C842        C843   1.410       .  A
C843        C844   1.409       .  A
C843       Br852   1.928       .  S
C844       Br848   1.928   1_455  S
C853        C854   1.414       .  A
C853        C858   1.414       .  A
C854        C855   1.409       .  A
C854       Br866   1.931       .  S
C855        C856   1.409       .  A
C855       Br870   1.931       .  S
C856        C859   1.486       .  S
C856        C857   1.408       .  A
C857        C858   1.406       .  A
C857       Br865   1.932       .  S
C858       Br869   1.933   1_545  S
C859        C860   1.407       .  A
C859        C864   1.410       .  A
C860        C861   1.406   1_655  A
C860       Br871   1.934       .  S
C861        C862   1.419       .  A
C861       Br867   1.935       .  S
C862        C863   1.414       .  A
C863        C864   1.410   1_455  A
C863       Br872   1.930       .  S
C864       Br868   1.931       .  S
C873        C874   1.412       .  A
C873        C878   1.417       .  A
C874        C875   1.407       .  A
C874       Br886   1.925       .  S
C875        C876   1.409       .  A
C875       Br890   1.931       .  S
C876        C879   1.482       .  S
C876        C877   1.407       .  A
C877        C878   1.402       .  A
C877       Br885   1.936       .  S
C878       Br889   1.931       .  S
C879        C880   1.407       .  A
C879        C884   1.407       .  A
C880        C881   1.406       .  A
C880       Br891   1.935       .  S
C881        C882   1.422       .  A
C881       Br887   1.936       .  S
C882        C883   1.420       .  A
C883        C884   1.405       .  A
C883       Br892   1.931       .  S
C884       Br888   1.936       .  S
C893        C894   1.412       .  A
C893        C898   1.409       .  A
C894        C895   1.405       .  A
C894       Br906   1.932       .  S
C895        C896   1.408       .  A
C895       Br910   1.930   1_545  S
C896        C899   1.481       .  S
C896        C897   1.410       .  A
C897        C898   1.405       .  A
C897       Br905   1.929       .  S
C898       Br909   1.932       .  S
C899        C900   1.402   1_545  A
C899        C904   1.407   1_545  A
C900        C901   1.402       .  A
C900       Br911   1.939   1_565  S
C901        C902   1.427       .  A
C901       Br907   1.941       .  S
C902        C903   1.421       .  A
C903        C904   1.413       .  A
C903       Br912   1.932       .  S
C904       Br908   1.931       .  S
C913        C914   1.410       .  A
C913        C918   1.409       .  A
C914        C915   1.410       .  A
C914       Br926   1.929       .  S
C915        C916   1.410       .  A
C915       Br930   1.929       .  S
C916        C919   1.488       .  S
C916        C917   1.410       .  A
C917        C918   1.407       .  A
C917       Br925   1.929       .  S
C918       Br929   1.929       .  S
C919        C920   1.410   1_565  A
C919        C924   1.407       .  A
C920        C921   1.411       .  A
C920       Br931   1.931       .  S
C921        C922   1.414       .  A
C921       Br927   1.929       .  S
C922        C923   1.415       .  A
C923        C924   1.408   1_545  A
C923       Br932   1.932       .  S
C924       Br928   1.930       .  S
C933        C934   1.408       .  A
C933        C938   1.405       .  A
C934        C935   1.403       .  A
C934       Br946   1.928       .  S
C935        C936   1.407       .  A
C935       Br950   1.929       .  S
C936        C939   1.476       .  S
C936        C937   1.411       .  A
C937        C938   1.403       .  A
C937       Br945   1.930       .  S
C938       Br949   1.931       .  S
C939        C940   1.407       .  A
C939        C944   1.401       .  A
C940        C941   1.408       .  A
C940       Br951   1.931       .  S
C941        C942   1.418       .  A
C941       Br947   1.933       .  S
C942        C943   1.421       .  A
C943        C944   1.402       .  A
C943       Br952   1.932       .  S
C944       Br948   1.934       .  S
C953        C954   1.412       .  A
C953        C958   1.414       .  A
C954        C955   1.411       .  A
C954       Br966   1.925       .  S
C955        C956   1.410       .  A
C955       Br970   1.929       .  S
C956        C959   1.495       .  S
C956        C957   1.411       .  A
C957        C958   1.412       .  A
C957       Br965   1.932       .  S
C958       Br969   1.930       .  S
C959        C960   1.411       .  A
C959        C964   1.412       .  A
C960        C961   1.410       .  A
C960       Br971   1.930       .  S
C961        C962   1.410       .  A
C961       Br967   1.926       .  S
C962        C963   1.409       .  A
C963        C964   1.412       .  A
C963       Br972   1.927       .  S
C964       Br968   1.928       .  S
C973        C974   1.421   1_556  A
C973        C978   1.422       .  A
C974        C975   1.415       .  A
C974       Br986   1.932       .  S
C975        C976   1.411       .  A
C975       Br990   1.932       .  S
C976        C979   1.495       .  S
C976        C977   1.407       .  A
C977        C978   1.409   1_554  A
C977       Br985   1.934       .  S
C978       Br989   1.935       .  S
C979        C980   1.409       .  A
C979        C984   1.410       .  A
C980        C981   1.409       .  A
C980       Br991   1.933       .  S
C981        C982   1.419       .  A
C981       Br987   1.935       .  S
C982        C983   1.418       .  A
C983        C984   1.412       .  A
C983       Br992   1.931       .  S
C984       Br988   1.931       .  S
C993        C994   1.411       .  A
C993        C998   1.414       .  A
C994        C995   1.412       .  A
C994      Br1006   1.928       .  S
C995        C996   1.412       .  A
C995      Br1010   1.930       .  S
C996        C999   1.496       .  S
C996        C997   1.409       .  A
C997        C998   1.412       .  A
C997      Br1005   1.929       .  S
C998      Br1009   1.926       .  S
C999       C1000   1.409       .  A
C999       C1004   1.411       .  A
C1000      C1001   1.409       .  A
C1000     Br1011   1.934       .  S
C1001      C1002   1.416       .  A
C1001     Br1007   1.931       .  S
C1002      C1003   1.416       .  A
C1003      C1004   1.416       .  A
C1003     Br1012   1.929       .  S
C1004     Br1008   1.928       .  S
C1013      C1014   1.408   1_565  A
C1013      C1018   1.414       .  A
C1014      C1015   1.403       .  A
C1014     Br1026   1.930       .  S
C1015      C1016   1.408       .  A
C1015     Br1030   1.931       .  S
C1016      C1019   1.480       .  S
C1016      C1017   1.407   1_545  A
C1017      C1018   1.409       .  A
C1017     Br1025   1.930       .  S
C1018     Br1029   1.926       .  S
C1019      C1020   1.409       .  A
C1019      C1024   1.406       .  A
C1020      C1021   1.406       .  A
C1020     Br1031   1.932       .  S
C1021      C1022   1.413       .  A
C1021     Br1027   1.932       .  S
C1022      C1023   1.413       .  A
C1023      C1024   1.406       .  A
C1023     Br1032   1.931       .  S
C1024     Br1028   1.930   1_545  S
