geometry optimzed in LAMMPS
_audit_creation_date              2020-11-30 
_audit_creation_method            'lammps2cif' 
_symmetry_space_group_name_H-M    'P1' 
_symmetry_Int_Tables_number       1 
_symmetry_cell_setting            triclinic 
loop_ 
_symmetry_equiv_pos_as_xyz 
  x,y,z 
_cell_length_a                    48.204933461009176 
_cell_length_b                    48.376054533531594 
_cell_length_c                    40.260192067266864 
_cell_angle_alpha                 90.06208256591698 
_cell_angle_beta                  90.11600304929247 
_cell_angle_gamma                 90.07024834112833 
loop_ 
_atom_site_label 
_atom_site_type_symbol 
_atom_site_fract_x 
_atom_site_fract_y 
_atom_site_fract_z 
_atom_site_charge 
N1          N  0.41637532  0.09876894  0.08017887    -0.26950
N2          N  0.40805568  0.07536359  0.09387408    -0.34810
C3          C  0.42292353  0.05435600  0.08106682     0.01390
C4          C  0.44107587  0.06516803  0.05788434     0.07410
C5          C  0.43633288  0.09330650  0.05791764    -0.05690
H6          H  0.42035588  0.03284183  0.08770356     0.08080
H7          H  0.44690424  0.10876774  0.04319941     0.09280
Cu8        Cu  0.37604129  0.07344137  0.12816446     0.44170
Cu9        Cu  0.40129627  0.13729866  0.09303694     0.41990
Cu10       Cu  0.34924095  0.13986004  0.15686557     0.43880
N11         N  0.34350070  0.07776807  0.16142511    -0.34340
N12         N  0.33463128  0.10182111  0.17290161    -0.28590
C13         C  0.31390328  0.09734582  0.19454535    -0.04690
C14         C  0.30924915  0.06920661  0.19633137     0.07520
C15         C  0.32824966  0.05739353  0.17496191     0.01320
H16         H  0.30250829  0.11344764  0.20723751     0.08970
H17         H  0.33090834  0.03561668  0.16974489     0.08050
N18         N  0.36542166  0.17478788  0.13419541    -0.35790
N19         N  0.38467343  0.17374692  0.11092029    -0.27970
C20         C  0.39093544  0.19958544  0.10127726    -0.03210
C21         C  0.37471160  0.21784946  0.11919394     0.05400
C22         C  0.35872754  0.20136544  0.13980058     0.03500
H23         H  0.40587848  0.20462025  0.08217457     0.08600
H24         H  0.34356625  0.20815543  0.15783965     0.07430
O25         O  0.46994711  0.06181062  0.01069086    -0.72610
O26         O  0.02725316  0.02393718  0.45500008    -0.73590
O27         O  0.46812525  0.02365335  0.45709194    -0.62210
O28         O  0.02807693  0.06204100  0.00861067    -0.70620
O29         O  0.02953763  0.02698084  0.04415342    -0.70170
O30         O  0.46943667  0.98840449  0.49237786    -0.61420
O31         O  0.02779862  0.98864908  0.49026365    -0.73930
O32         O  0.47030360  0.02670800  0.04621992    -0.72710
Cu33       Cu  0.49830710  0.04402583  0.48156159     1.04560
Cu34       Cu  0.49931296  0.00646185  0.01956647     1.04330
C35         C  0.46128960  0.05041129  0.03730324     0.93590
C36         C  0.03643262  0.00027651  0.46375524     0.92730
C37         C  0.45944410  0.99995693  0.46649100     0.84880
C38         C  0.03807475  0.05070792  0.03461274     0.91150
N39         N  0.16449668  0.10230150  0.17085843    -0.26950
N40         N  0.15649943  0.07831562  0.15823080    -0.34810
C41         C  0.17181885  0.05799575  0.17175294     0.01390
C42         C  0.19000611  0.06973474  0.19429161     0.07410
C43         C  0.18479314  0.09781450  0.19319027    -0.05690
H44         H  0.16969024  0.03628105  0.16580734     0.08080
H45         H  0.19542942  0.11387129  0.20696442     0.09280
Cu46       Cu  0.12483911  0.07402755  0.12366096     0.44170
Cu47       Cu  0.14902410  0.14022881  0.15544465     0.41990
Cu48       Cu  0.10193639  0.13744783  0.08549703     0.43880
N49         N  0.09316495  0.07581727  0.08882158    -0.34340
N50         N  0.08557601  0.09900422  0.07403683    -0.28590
C51         C  0.06510222  0.09346099  0.05233944    -0.04690
C52         C  0.05934318  0.06550293  0.05377166     0.07520
C53         C  0.07741181  0.05490626  0.07723516     0.01320
H54         H  0.05477087  0.10877838  0.03715994     0.08970
H55         H  0.07913438  0.03360671  0.08513536     0.08050
N56         N  0.11752635  0.17390988  0.10503224    -0.35790
N57         N  0.13367432  0.17505190  0.13159862    -0.27970
C58         C  0.13874236  0.20170892  0.13903215    -0.03210
C59         C  0.12541306  0.21799589  0.11576518     0.05400
C60         C  0.11223209  0.19975166  0.09454686     0.03500
H61         H  0.15148592  0.20870155  0.15956779     0.08600
H62         H  0.09924499  0.20488575  0.07347224     0.07430
N63         N  0.33283369  0.95618131  0.32781267    -0.26950
N64         N  0.34041701  0.97941733  0.34258689    -0.34810
C65         C  0.32510641  0.00036586  0.33041161     0.01390
C66         C  0.30737011  0.98972875  0.30655440     0.07410
C67         C  0.31284908  0.96171956  0.30551011    -0.05690
H68         H  0.32700480  0.02173283  0.33805818     0.08080
H69         H  0.30271171  0.94638251  0.29009693     0.09280
Cu70       Cu  0.37180733  0.98122355  0.37780464     0.44170
Cu71       Cu  0.34871134  0.91774407  0.33981275     0.41990
Cu72       Cu  0.39700124  0.91502001  0.40847533     0.43880
N73         N  0.40375717  0.97702099  0.41198441    -0.34340
N74         N  0.41210776  0.95305089  0.42421087    -0.28590
C75         C  0.43279331  0.95760875  0.44602522    -0.04690
C76         C  0.43791461  0.98571486  0.44716299     0.07520
C77         C  0.41924451  0.99740048  0.42522778     0.01320
H78         H  0.44388808  0.94157027  0.45921146     0.08970
H79         H  0.41704637  0.01909917  0.41931539     0.08050
N80         N  0.38174753  0.88018731  0.38442216    -0.35790
N81         N  0.36461069  0.88131931  0.35879711    -0.27970
C82         C  0.35919880  0.85550765  0.34823550    -0.03210
C83         C  0.37357113  0.83714801  0.36820176     0.05400
C84         C  0.38762994  0.85356157  0.39092040     0.03500
H85         H  0.34541237  0.85051435  0.32783636     0.08600
H86         H  0.40152146  0.84672921  0.41039486     0.07430
O87         O  0.27768006  0.99327394  0.25994239    -0.72610
O88         O  0.21977420  0.03178653  0.20554683    -0.73590
O89         O  0.27893906  0.03145645  0.20653616    -0.62210
O90         O  0.21952945  0.99357848  0.25906456    -0.70620
O91         O  0.21879084  0.02867518  0.29468359    -0.70170
O92         O  0.27839007  0.06667414  0.24199154    -0.61420
O93         O  0.21999572  0.06701737  0.24098157    -0.73930
O94         O  0.27804101  0.02829385  0.29567661    -0.72710
Cu95       Cu  0.24897791  0.01135880  0.23147328     1.04560
Cu96       Cu  0.24879936  0.04888611  0.26964657     1.04330
C97         C  0.28681316  0.00456720  0.28646207     0.93590
C98         C  0.21086549  0.05549287  0.21457680     0.92730
C99         C  0.28792442  0.05507049  0.21590804     0.84880
C100        C  0.21001268  0.00498279  0.28526718     0.91150
N101        N  0.16410717  0.95659296  0.32660329    -0.26950
N102        N  0.15536120  0.98002136  0.33987127    -0.34810
C103        C  0.17041413  0.00105306  0.32740946     0.01390
C104        C  0.18913191  0.99023546  0.30488916     0.07410
C105        C  0.18452542  0.96206602  0.30494515    -0.05690
H106        H  0.16770281  0.02257354  0.33396173     0.08080
H107        H  0.19559407  0.94658229  0.29079984     0.09280
Cu108      Cu  0.12284345  0.98196978  0.37350996     0.44170
Cu109      Cu  0.14919913  0.91799549  0.33948160     0.41990
Cu110      Cu  0.09568037  0.91559703  0.40151502     0.43880
N111        N  0.09040213  0.97764881  0.40694993    -0.34340
N112        N  0.08141165  0.95355682  0.41816692    -0.28590
C113        C  0.06116880  0.95797644  0.44047215    -0.04690
C114        C  0.05694615  0.98613566  0.44298150     0.07520
C115        C  0.07568425  0.99801357  0.42131484     0.01320
H116        H  0.04991865  0.94184304  0.45329839     0.08970
H117        H  0.07866271  0.01983145  0.41663904     0.08050
N118        N  0.11253948  0.88062387  0.37972766    -0.35790
N119        N  0.13235275  0.88158060  0.35716357    -0.27970
C120        C  0.13915729  0.85569161  0.34829358    -0.03210
C121        C  0.12270945  0.83738944  0.36598738     0.05400
C122        C  0.10603956  0.85405731  0.38566253     0.03500
H123        H  0.15529209  0.85069507  0.33064910     0.08600
H124        H  0.09007475  0.84750274  0.40278978     0.07430
N125        N  0.41463306  0.59877119  0.39928535    -0.26950
N126        N  0.40698696  0.57552283  0.38458535    -0.34810
C127        C  0.42228864  0.55457138  0.39676453     0.01390
C128        C  0.44008525  0.56521685  0.42054986     0.07410
C129        C  0.43465147  0.59323679  0.42154847    -0.05690
H130        H  0.42036517  0.53320043  0.38914275     0.08080
H131        H  0.44486335  0.60858566  0.43687334     0.09280
Cu132      Cu  0.37557326  0.57369944  0.34940223     0.44170
Cu133      Cu  0.39883017  0.63721702  0.38717153     0.41990
Cu134      Cu  0.35054511  0.63987205  0.31848579     0.43880
N135        N  0.34365173  0.57787904  0.31518365    -0.34340
N136        N  0.33536558  0.60183862  0.30286605    -0.28590
C137        C  0.31471523  0.59727288  0.28100799    -0.04690
C138        C  0.30954830  0.56917362  0.27993490     0.07520
C139        C  0.32815601  0.55749855  0.30195462     0.01320
H140        H  0.30369321  0.61330241  0.26771824     0.08970
H141        H  0.33032720  0.53580450  0.30790564     0.08050
N142        N  0.36584003  0.67472947  0.34244586    -0.35790
N143        N  0.38297395  0.67362317  0.36807575    -0.27970
C144        C  0.38839021  0.69944577  0.37859281    -0.03210
C145        C  0.37402151  0.71778567  0.35859599     0.05400
C146        C  0.35996390  0.70134933  0.33590070     0.03500
H147        H  0.40216414  0.70445884  0.39899720     0.08600
H148        H  0.34606432  0.70816151  0.31642429     0.07430
N149        N  0.41359844  0.45307689  0.05450867    -0.26950
N150        N  0.40472046  0.47713191  0.06596939    -0.34810
C151        C  0.41988163  0.49751499  0.05230703     0.01390
C152        C  0.43882892  0.48570605  0.03086670     0.07410
C153        C  0.43424030  0.45755910  0.03274735    -0.05690
H154        H  0.41718100  0.51929623  0.05746467     0.08080
H155        H  0.44561168  0.44146029  0.02001915     0.09280
Cu156      Cu  0.37223112  0.48145097  0.09929974     0.44170
Cu157      Cu  0.39906942  0.41503681  0.07067006     0.41990
Cu158      Cu  0.34701782  0.41760669  0.13451200     0.43880
N159        N  0.34016976  0.47952523  0.13352284    -0.34340
N160        N  0.33185912  0.45612771  0.14724457    -0.28590
C161        C  0.31181514  0.46158548  0.16939439    -0.04690
C162        C  0.30700719  0.48971179  0.16932371     0.07520
C163        C  0.32521236  0.50052235  0.14620117     0.01320
H164        H  0.30121681  0.44612600  0.18408741     0.08970
H165        H  0.32773599  0.52202712  0.13949614     0.08050
N166        N  0.36366969  0.38116145  0.11667675    -0.35790
N167        N  0.38291886  0.38011391  0.09339869    -0.27970
C168        C  0.38961662  0.35353395  0.08781388    -0.03210
C169        C  0.37363725  0.33705753  0.10843610     0.05400
C170        C  0.35741301  0.35532753  0.12634130     0.03500
H171        H  0.40477209  0.34673595  0.06977187     0.08600
H172        H  0.34246804  0.35030029  0.14544448     0.07430
N173        N  0.16593143  0.60133621  0.30790171    -0.26950
N174        N  0.15694126  0.57725781  0.31916149    -0.34810
C175        C  0.17170926  0.55687891  0.30490068     0.01390
C176        C  0.19048244  0.56873180  0.28325865     0.07410
C177        C  0.18622739  0.59689166  0.28567378    -0.05690
H178        H  0.16875562  0.53506849  0.30964876     0.08080
H179        H  0.19750054  0.61301090  0.27285069     0.09280
Cu180      Cu  0.12447271  0.57296655  0.35256607     0.44170
Cu181      Cu  0.15161746  0.63931844  0.32442187     0.41990
Cu182      Cu  0.09808605  0.63696656  0.38644510     0.43880
N183        N  0.09198029  0.57493830  0.38623471    -0.34340
N184        N  0.08322663  0.59838133  0.39945706    -0.28590
C185        C  0.06286236  0.59292329  0.42119402    -0.04690
C186        C  0.05829832  0.56474723  0.42134723     0.07520
C187        C  0.07698435  0.55391054  0.39880283     0.01320
H188        H  0.05181189  0.60841804  0.43534226     0.08970
H189        H  0.07972892  0.53237859  0.39232636     0.08050
N190        N  0.11490285  0.67336734  0.36868020    -0.35790
N191        N  0.13472033  0.67431111  0.34612051    -0.27970
C192        C  0.14121012  0.70087558  0.34015104    -0.03210
C193        C  0.12453099  0.71755384  0.35980241     0.05400
C194        C  0.10808584  0.69926097  0.37751294     0.03500
H195        H  0.15718148  0.70742203  0.32302805     0.08600
H196        H  0.09195193  0.70426600  0.39515516     0.07430
O197        O  0.46944839  0.52665406  0.43125610    -0.72610
O198        O  0.02781478  0.48796445  0.48545370    -0.73590
O199        O  0.46942015  0.48826573  0.48494559    -0.62210
O200        O  0.02869594  0.52630642  0.43176843    -0.70620
O201        O  0.02813968  0.56139965  0.46739824    -0.70170
O202        O  0.46904242  0.52348558  0.02040115    -0.61420
O203        O  0.02821451  0.52317958  0.02090991    -0.73930
O204        O  0.46998546  0.56168032  0.46697924    -0.72710
Cu205      Cu  0.49884054  0.50607762  0.45704392     1.04560
Cu206      Cu  0.49885351  0.54360185  0.49522320     1.04330
C207        C  0.46072286  0.55038216  0.44052595     0.93590
C208        C  0.03709053  0.49948491  0.01178662     0.92730
C209        C  0.46002649  0.49986123  0.01110845     0.84880
C210        C  0.03751848  0.54999985  0.44112100     0.91150
O211        O  0.21986220  0.56619689  0.23618801    -0.72610
O212        O  0.27767351  0.52814331  0.18071344    -0.73590
O213        O  0.21843450  0.52784909  0.18230563    -0.62210
O214        O  0.27823179  0.56646094  0.23452622    -0.70620
O215        O  0.27936437  0.53123453  0.26985333    -0.70170
O216        O  0.21972135  0.49278558  0.21785305    -0.61420
O217        O  0.27786334  0.49305926  0.21627172    -0.73930
O218        O  0.22022197  0.53091722  0.27146713    -0.72710
Cu219      Cu  0.24851142  0.54838518  0.20712117     1.04560
Cu220      Cu  0.24932669  0.51083366  0.24515082     1.04330
C221        C  0.21109010  0.55457645  0.26263506     0.93590
C222        C  0.28666066  0.50445482  0.18972380     0.92730
C223        C  0.20986733  0.50411108  0.19176623     0.84880
C224        C  0.28809532  0.55492427  0.26049299     0.91150
N225        N  0.08379868  0.45266537  0.05494701    -0.26950
N226        N  0.09175157  0.47662059  0.06769775    -0.34810
C227        C  0.07630838  0.49694661  0.05439098     0.01390
C228        C  0.05808098  0.48524239  0.03187220     0.07410
C229        C  0.06340383  0.45717922  0.03275600    -0.05690
H230        H  0.07836897  0.51864013  0.06048213     0.08080
H231        H  0.05277484  0.44114574  0.01893407     0.09280
Cu232      Cu  0.12346727  0.48084762  0.10220435     0.44170
Cu233      Cu  0.09943556  0.41472009  0.07002901     0.41990
Cu234      Cu  0.14653472  0.41732694  0.13997701     0.43880
N235        N  0.15508488  0.47900456  0.13711244    -0.34340
N236        N  0.16272329  0.45577946  0.15177421    -0.28590
C237        C  0.18309537  0.46130977  0.17361709    -0.04690
C238        C  0.18873676  0.48930030  0.17240407     0.07520
C239        C  0.17070765  0.49992712  0.14891772     0.01320
H240        H  0.19343649  0.44596768  0.18875036     0.08970
H241        H  0.16891061  0.52125791  0.14116515     0.08050
N242        N  0.13104127  0.38090749  0.12019846    -0.35790
N243        N  0.11488775  0.37983568  0.09363279    -0.27970
C244        C  0.10983500  0.35319837  0.08607822    -0.03210
C245        C  0.12318162  0.33684902  0.10926603     0.05400
C246        C  0.13635458  0.35503669  0.13056274     0.03500
H247        H  0.09705977  0.34626254  0.06554343     0.08600
H248        H  0.14931824  0.34984589  0.15163822     0.07430
C249        C  0.13053453  0.79302467  0.33482545     0.23930
C250        C  0.12310221  0.80672359  0.36438270    -0.24170
C251        C  0.11619510  0.79079122  0.39242544     0.18840
C252        C  0.11671764  0.76191928  0.39095952     0.23880
C253        C  0.12414584  0.74821978  0.36140176    -0.24120
C254        C  0.13105741  0.76415133  0.33335966     0.18780
F255        F  0.13745089  0.75190238  0.30401433    -0.14080
F256        F  0.13645126  0.80745948  0.30682477    -0.16440
F257        F  0.11080607  0.74748629  0.41896305    -0.16440
F258        F  0.10980762  0.80303764  0.42177405    -0.14080
C259        C  0.37441162  0.79025449  0.39460168     0.23930
C260        C  0.37375724  0.80661164  0.36574730    -0.24170
C261        C  0.37312212  0.79352945  0.33451116     0.18840
C262        C  0.37314139  0.76467890  0.33218443     0.23880
C263        C  0.37380722  0.74832249  0.36103998    -0.24120
C264        C  0.37443045  0.76140567  0.39227515     0.18780
F265        F  0.37411155  0.74630554  0.42068037    -0.14080
F266        F  0.37405925  0.80213741  0.42516713    -0.16440
F267        F  0.37348532  0.75279413  0.30161974    -0.16440
F268        F  0.37343149  0.80863159  0.30610718    -0.14080
C269        C  0.13361727  0.26207354  0.08520995     0.23930
C270        C  0.12492943  0.24838541  0.11413986    -0.24170
C271        C  0.11554204  0.26388872  0.14139448     0.18840
C272        C  0.11489167  0.29276655  0.13975989     0.23880
C273        C  0.12359921  0.30645675  0.11084124    -0.24120
C274        C  0.13296694  0.29095387  0.08357530     0.18780
F275        F  0.14230176  0.30383825  0.05580270    -0.14080
F276        F  0.14349856  0.24748404  0.05895008    -0.16440
F277        F  0.10500580  0.30735430  0.16601862    -0.16440
F278        F  0.10620243  0.25100607  0.16916585    -0.14080
C279        C  0.39898680  0.29187157  0.10867156     0.23930
C280        C  0.37391313  0.30655508  0.11106782    -0.24170
C281        C  0.34910077  0.29185169  0.11624727     0.18840
C282        C  0.34935937  0.26303640  0.11897685     0.23960
C283        C  0.37443332  0.24835279  0.11657614    -0.24120
C284        C  0.39924546  0.26305678  0.11140145     0.18780
F285        F  0.42393881  0.24964372  0.11009312    -0.14080
F286        F  0.42343128  0.30545097  0.10485188    -0.16440
F287        F  0.32491477  0.24945725  0.12279811    -0.16440
F288        F  0.32440751  0.30526503  0.11755804    -0.14080
N289        N  0.41637533  0.09876894  0.58017889    -0.26950
N290        N  0.40805568  0.07536359  0.59387409    -0.34810
C291        C  0.42292353  0.05435600  0.58106683     0.01390
C292        C  0.44107587  0.06516803  0.55788435     0.07410
C293        C  0.43633289  0.09330650  0.55791766    -0.05690
H294        H  0.42035588  0.03284183  0.58770357     0.08080
H295        H  0.44690426  0.10876774  0.54319943     0.09280
Cu296      Cu  0.37604129  0.07344137  0.62816447     0.44170
Cu297      Cu  0.40129628  0.13729866  0.59303696     0.41990
Cu298      Cu  0.34924097  0.13986004  0.65686560     0.43880
N299        N  0.34350071  0.07776807  0.66142512    -0.34340
N300        N  0.33463129  0.10182111  0.67290163    -0.28590
C301        C  0.31390329  0.09734583  0.69454537    -0.04690
C302        C  0.30924915  0.06920662  0.69633138     0.07520
C303        C  0.32824966  0.05739354  0.67496192     0.01320
H304        H  0.30250830  0.11344765  0.70723753     0.08970
H305        H  0.33090833  0.03561669  0.66974489     0.08050
N306        N  0.36542168  0.17478788  0.63419544    -0.35790
N307        N  0.38467345  0.17374692  0.61092031    -0.27970
C308        C  0.39093546  0.19958544  0.60127728    -0.03210
C309        C  0.37471163  0.21784946  0.61919396     0.05400
C310        C  0.35872757  0.20136545  0.63980061     0.03500
H311        H  0.40587850  0.20462025  0.58217459     0.08600
H312        H  0.34356628  0.20815544  0.65783968     0.07430
O313        O  0.46994711  0.06181061  0.51069087    -0.72610
O314        O  0.02725317  0.02393717  0.95500009    -0.73590
O315        O  0.46812526  0.02365335  0.95709193    -0.62210
O316        O  0.02807694  0.06204099  0.50861067    -0.70620
O317        O  0.02953764  0.02698084  0.54415341    -0.70170
O318        O  0.46943668  0.98840449  0.99237785    -0.61420
O319        O  0.02779862  0.98864909  0.99026366    -0.73930
O320        O  0.47030360  0.02670800  0.54621993    -0.72710
Cu321      Cu  0.49830710  0.04402584  0.98156159     1.04560
Cu322      Cu  0.49931296  0.00646184  0.51956647     1.04330
C323        C  0.46128960  0.05041129  0.53730325     0.93590
C324        C  0.03643262  0.00027651  0.96375525     0.92730
C325        C  0.45944411  0.99995693  0.96649099     0.84880
C326        C  0.03807476  0.05070792  0.53461274     0.91150
N327        N  0.16449668  0.10230150  0.67085844    -0.26950
N328        N  0.15649942  0.07831562  0.65823081    -0.34810
C329        C  0.17181884  0.05799576  0.67175296     0.01390
C330        C  0.19000611  0.06973475  0.69429163     0.07410
C331        C  0.18479314  0.09781451  0.69319028    -0.05690
H332        H  0.16969024  0.03628106  0.66580736     0.08080
H333        H  0.19542942  0.11387130  0.70696443     0.09280
Cu334      Cu  0.12483911  0.07402755  0.62366097     0.44170
Cu335      Cu  0.14902410  0.14022881  0.65544464     0.41990
Cu336      Cu  0.10193640  0.13744783  0.58549702     0.43880
N337        N  0.09316495  0.07581727  0.58882159    -0.34340
N338        N  0.08557602  0.09900422  0.57403682    -0.28590
C339        C  0.06510223  0.09346098  0.55233942    -0.04690
C340        C  0.05934319  0.06550293  0.55377166     0.07520
C341        C  0.07741182  0.05490626  0.57723516     0.01320
H342        H  0.05477089  0.10877837  0.53715993     0.08970
H343        H  0.07913438  0.03360671  0.58513537     0.08050
N344        N  0.11752636  0.17390988  0.60503222    -0.35790
N345        N  0.13367433  0.17505191  0.63159860    -0.27970
C346        C  0.13874237  0.20170892  0.63903213    -0.03210
C347        C  0.12541308  0.21799589  0.61576516     0.05400
C348        C  0.11223211  0.19975166  0.59454683     0.03500
H349        H  0.15148592  0.20870156  0.65956777     0.08600
H350        H  0.09924501  0.20488575  0.57347221     0.07430
N351        N  0.33283368  0.95618131  0.82781268    -0.26950
N352        N  0.34041701  0.97941733  0.84258689    -0.34810
C353        C  0.32510641  0.00036587  0.83041161     0.01390
C354        C  0.30737011  0.98972875  0.80655441     0.07410
C355        C  0.31284907  0.96171956  0.80551013    -0.05690
H356        H  0.32700481  0.02173284  0.83805818     0.08080
H357        H  0.30271170  0.94638251  0.79009695     0.09280
Cu358      Cu  0.37180734  0.98122355  0.87780464     0.44170
Cu359      Cu  0.34871132  0.91774406  0.83981276     0.41990
Cu360      Cu  0.39700124  0.91502002  0.90847533     0.43880
N361        N  0.40375718  0.97702099  0.91198440    -0.34340
N362        N  0.41210777  0.95305089  0.92421086    -0.28590
C363        C  0.43279331  0.95760875  0.94602521    -0.04690
C364        C  0.43791461  0.98571486  0.94716298     0.07520
C365        C  0.41924452  0.99740048  0.92522777     0.01320
H366        H  0.44388809  0.94157027  0.95921145     0.08970
H367        H  0.41704637  0.01909917  0.91931538     0.08050
N368        N  0.38174753  0.88018732  0.88442217    -0.35790
N369        N  0.36461068  0.88131931  0.85879713    -0.27970
C370        C  0.35919879  0.85550765  0.84823552    -0.03210
C371        C  0.37357113  0.83714801  0.86820178     0.05400
C372        C  0.38762994  0.85356158  0.89092041     0.03500
H373        H  0.34541236  0.85051434  0.82783639     0.08600
H374        H  0.40152147  0.84672921  0.91039487     0.07430
O375        O  0.27768006  0.99327395  0.75994240    -0.72610
O376        O  0.21977420  0.03178654  0.70554685    -0.73590
O377        O  0.27893906  0.03145646  0.70653617    -0.62210
O378        O  0.21952945  0.99357849  0.75906457    -0.70620
O379        O  0.21879084  0.02867519  0.79468360    -0.70170
O380        O  0.27839007  0.06667415  0.74199155    -0.61420
O381        O  0.21999572  0.06701738  0.74098158    -0.73930
O382        O  0.27804101  0.02829385  0.79567662    -0.72710
Cu383      Cu  0.24897791  0.01135881  0.73147329     1.04560
Cu384      Cu  0.24879936  0.04888612  0.76964658     1.04330
C385        C  0.28681316  0.00456720  0.78646208     0.93590
C386        C  0.21086548  0.05549288  0.71457681     0.92730
C387        C  0.28792442  0.05507050  0.71590805     0.84880
C388        C  0.21001268  0.00498280  0.78526719     0.91150
N389        N  0.16410717  0.95659296  0.82660329    -0.26950
N390        N  0.15536120  0.98002137  0.83987129    -0.34810
C391        C  0.17041414  0.00105307  0.82740948     0.01390
C392        C  0.18913191  0.99023547  0.80488917     0.07410
C393        C  0.18452542  0.96206603  0.80494516    -0.05690
H394        H  0.16770281  0.02257355  0.83396175     0.08080
H395        H  0.19559406  0.94658230  0.79079984     0.09280
Cu396      Cu  0.12284345  0.98196978  0.87350998     0.44170
Cu397      Cu  0.14919913  0.91799549  0.83948161     0.41990
Cu398      Cu  0.09568038  0.91559704  0.90151505     0.43880
N399        N  0.09040214  0.97764881  0.90694996    -0.34340
N400        N  0.08141167  0.95355682  0.91816695    -0.28590
C401        C  0.06116881  0.95797644  0.94047217    -0.04690
C402        C  0.05694616  0.98613567  0.94298152     0.07520
C403        C  0.07568426  0.99801357  0.92131486     0.01320
H404        H  0.04991866  0.94184304  0.95329841     0.08970
H405        H  0.07866271  0.01983145  0.91663905     0.08050
N406        N  0.11253949  0.88062387  0.87972768    -0.35790
N407        N  0.13235275  0.88158061  0.85716357    -0.27970
C408        C  0.13915729  0.85569161  0.84829358    -0.03210
C409        C  0.12270945  0.83738945  0.86598738     0.05400
C410        C  0.10603956  0.85405731  0.88566254     0.03500
H411        H  0.15529208  0.85069508  0.83064909     0.08600
H412        H  0.09007476  0.84750274  0.90278980     0.07430
N413        N  0.41463305  0.59877119  0.89928537    -0.26950
N414        N  0.40698695  0.57552282  0.88458538    -0.34810
C415        C  0.42228864  0.55457138  0.89676454     0.01390
C416        C  0.44008525  0.56521685  0.92054987     0.07410
C417        C  0.43465147  0.59323679  0.92154849    -0.05690
H418        H  0.42036516  0.53320043  0.88914276     0.08080
H419        H  0.44486335  0.60858565  0.93687335     0.09280
Cu420      Cu  0.37557324  0.57369944  0.84940226     0.44170
Cu421      Cu  0.39883017  0.63721702  0.88717157     0.41990
Cu422      Cu  0.35054509  0.63987205  0.81848583     0.43880
N423        N  0.34365171  0.57787904  0.81518368    -0.34340
N424        N  0.33536556  0.60183862  0.80286609    -0.28590
C425        C  0.31471521  0.59727289  0.78100803    -0.04690
C426        C  0.30954829  0.56917362  0.77993493     0.07520
C427        C  0.32815599  0.55749855  0.80195465     0.01320
H428        H  0.30369320  0.61330241  0.76771827     0.08970
H429        H  0.33032719  0.53580450  0.80790567     0.08050
N430        N  0.36584002  0.67472947  0.84244590    -0.35790
N431        N  0.38297394  0.67362317  0.86807579    -0.27970
C432        C  0.38839021  0.69944576  0.87859284    -0.03210
C433        C  0.37402150  0.71778566  0.85859603     0.05400
C434        C  0.35996389  0.70134933  0.83590074     0.03500
H435        H  0.40216414  0.70445884  0.89899722     0.08600
H436        H  0.34606431  0.70816151  0.81642434     0.07430
N437        N  0.41359844  0.45307690  0.55450868    -0.26950
N438        N  0.40472047  0.47713192  0.56596941    -0.34810
C439        C  0.41988164  0.49751500  0.55230704     0.01390
C440        C  0.43882891  0.48570606  0.53086670     0.07410
C441        C  0.43424030  0.45755910  0.53274735    -0.05690
H442        H  0.41718101  0.51929624  0.55746468     0.08080
H443        H  0.44561168  0.44146030  0.52001914     0.09280
Cu444      Cu  0.37223114  0.48145098  0.59929978     0.44170
Cu445      Cu  0.39906943  0.41503682  0.57067008     0.41990
Cu446      Cu  0.34701787  0.41760669  0.63451206     0.43880
N447        N  0.34016980  0.47952523  0.63352289    -0.34340
N448        N  0.33185916  0.45612771  0.64724463    -0.28590
C449        C  0.31181517  0.46158548  0.66939444    -0.04690
C450        C  0.30700722  0.48971179  0.66932375     0.07520
C451        C  0.32521239  0.50052235  0.64620121     0.01320
H452        H  0.30121685  0.44612600  0.68408746     0.08970
H453        H  0.32773600  0.52202712  0.63949617     0.08050
N454        N  0.36366973  0.38116145  0.61667680    -0.35790
N455        N  0.38291888  0.38011392  0.59339872    -0.27970
C456        C  0.38961664  0.35353396  0.58781390    -0.03210
C457        C  0.37363728  0.33705754  0.60843613     0.05400
C458        C  0.35741305  0.35532753  0.62634134     0.03500
H459        H  0.40477210  0.34673596  0.56977188     0.08600
H460        H  0.34246809  0.35030029  0.64544453     0.07430
N461        N  0.16593141  0.60133621  0.80790167    -0.26950
N462        N  0.15694124  0.57725782  0.81916146    -0.34810
C463        C  0.17170925  0.55687892  0.80490065     0.01390
C464        C  0.19048242  0.56873180  0.78325862     0.07410
C465        C  0.18622737  0.59689167  0.78567375    -0.05690
H466        H  0.16875560  0.53506849  0.80964873     0.08080
H467        H  0.19750053  0.61301091  0.77285066     0.09280
Cu468      Cu  0.12447269  0.57296656  0.85256604     0.44170
Cu469      Cu  0.15161744  0.63931844  0.82442184     0.41990
Cu470      Cu  0.09808604  0.63696657  0.88644508     0.43880
N471        N  0.09198028  0.57493830  0.88623468    -0.34340
N472        N  0.08322662  0.59838134  0.89945704    -0.28590
C473        C  0.06286236  0.59292330  0.92119400    -0.04690
C474        C  0.05829831  0.56474723  0.92134721     0.07520
C475        C  0.07698434  0.55391055  0.89880280     0.01320
H476        H  0.05181189  0.60841804  0.93534225     0.08970
H477        H  0.07972891  0.53237859  0.89232633     0.08050
N478        N  0.11490284  0.67336734  0.86868017    -0.35790
N479        N  0.13472031  0.67431112  0.84612048    -0.27970
C480        C  0.14121010  0.70087559  0.84015101    -0.03210
C481        C  0.12453098  0.71755384  0.85980239     0.05400
C482        C  0.10808583  0.69926098  0.87751292     0.03500
H483        H  0.15718146  0.70742204  0.82302802     0.08600
H484        H  0.09195193  0.70426600  0.89515514     0.07430
O485        O  0.46944839  0.52665406  0.93125611    -0.72610
O486        O  0.02781479  0.48796445  0.98545368    -0.73590
O487        O  0.46942015  0.48826572  0.98494559    -0.62210
O488        O  0.02869594  0.52630642  0.93176842    -0.70620
O489        O  0.02813968  0.56139964  0.96739823    -0.70170
O490        O  0.46904242  0.52348559  0.52040115    -0.61420
O491        O  0.02821450  0.52317959  0.52090993    -0.73930
O492        O  0.46998546  0.56168031  0.96697925    -0.72710
Cu493      Cu  0.49884054  0.50607762  0.95704392     1.04560
Cu494      Cu  0.49885351  0.54360184  0.99522320     1.04330
C495        C  0.46072286  0.55038216  0.94052596     0.93590
C496        C  0.03709053  0.49948492  0.51178663     0.92730
C497        C  0.46002649  0.49986124  0.51110845     0.84880
C498        C  0.03751848  0.54999985  0.94112099     0.91150
O499        O  0.21986220  0.56619689  0.73618800    -0.72610
O500        O  0.27767352  0.52814330  0.68071346    -0.73590
O501        O  0.21843451  0.52784908  0.68230562    -0.62210
O502        O  0.27823179  0.56646094  0.73452624    -0.70620
O503        O  0.27936436  0.53123454  0.76985335    -0.70170
O504        O  0.21972135  0.49278558  0.71785305    -0.61420
O505        O  0.27786335  0.49305926  0.71627175    -0.73930
O506        O  0.22022196  0.53091722  0.77146712    -0.72710
Cu507      Cu  0.24851143  0.54838518  0.70712117     1.04560
Cu508      Cu  0.24932669  0.51083366  0.74515083     1.04330
C509        C  0.21109009  0.55457646  0.76263504     0.93590
C510        C  0.28666067  0.50445481  0.68972383     0.92730
C511        C  0.20986735  0.50411107  0.69176623     0.84880
C512        C  0.28809531  0.55492427  0.76049301     0.91150
N513        N  0.08379868  0.45266537  0.55494702    -0.26950
N514        N  0.09175157  0.47662060  0.56769776    -0.34810
C515        C  0.07630837  0.49694662  0.55439099     0.01390
C516        C  0.05808098  0.48524240  0.53187222     0.07410
C517        C  0.06340383  0.45717923  0.53275601    -0.05690
H518        H  0.07836896  0.51864013  0.56048214     0.08080
H519        H  0.05277484  0.44114574  0.51893408     0.09280
Cu520      Cu  0.12346727  0.48084763  0.60220435     0.44170
Cu521      Cu  0.09943557  0.41472010  0.57002901     0.41990
Cu522      Cu  0.14653473  0.41732694  0.63997701     0.43880
N523        N  0.15508489  0.47900456  0.63711243    -0.34340
N524        N  0.16272330  0.45577946  0.65177420    -0.28590
C525        C  0.18309538  0.46130977  0.67361708    -0.04690
C526        C  0.18873677  0.48930030  0.67240406     0.07520
C527        C  0.17070766  0.49992712  0.64891771     0.01320
H528        H  0.19343650  0.44596768  0.68875035     0.08970
H529        H  0.16891062  0.52125792  0.64116514     0.08050
N530        N  0.13104128  0.38090749  0.62019845    -0.35790
N531        N  0.11488776  0.37983569  0.59363278    -0.27970
C532        C  0.10983501  0.35319837  0.58607821    -0.03210
C533        C  0.12318163  0.33684902  0.60926601     0.05400
C534        C  0.13635459  0.35503669  0.63056273     0.03500
H535        H  0.09705978  0.34626255  0.56554342     0.08600
H536        H  0.14931825  0.34984589  0.65163821     0.07430
C537        C  0.13053451  0.79302468  0.83482544     0.23930
C538        C  0.12310221  0.80672360  0.86438269    -0.24170
C539        C  0.11619510  0.79079122  0.89242543     0.18840
C540        C  0.11671763  0.76191928  0.89095951     0.23880
C541        C  0.12414583  0.74821978  0.86140174    -0.24120
C542        C  0.13105738  0.76415134  0.83335964     0.18780
F543        F  0.13745086  0.75190239  0.80401430    -0.14080
F544        F  0.13645123  0.80745949  0.80682476    -0.16440
F545        F  0.11080607  0.74748629  0.91896304    -0.16440
F546        F  0.10980763  0.80303764  0.92177405    -0.14080
C547        C  0.37441163  0.79025449  0.89460170     0.23930
C548        C  0.37375725  0.80661164  0.86574732    -0.24170
C549        C  0.37312212  0.79352944  0.83451118     0.18840
C550        C  0.37314139  0.76467889  0.83218446     0.23880
C551        C  0.37380723  0.74832249  0.86104001    -0.24120
C552        C  0.37443047  0.76140567  0.89227518     0.18780
F553        F  0.37411157  0.74630555  0.92068041    -0.14080
F554        F  0.37405927  0.80213742  0.92516715    -0.16440
F555        F  0.37348530  0.75279413  0.80161977    -0.16440
F556        F  0.37343147  0.80863158  0.80610720    -0.14080
C557        C  0.13361728  0.26207354  0.58520992     0.23930
C558        C  0.12492944  0.24838541  0.61413983    -0.24170
C559        C  0.11554205  0.26388872  0.64139446     0.18840
C560        C  0.11489168  0.29276655  0.63975987     0.23880
C561        C  0.12359922  0.30645675  0.61084122    -0.24120
C562        C  0.13296695  0.29095387  0.58357527     0.18780
F563        F  0.14230177  0.30383825  0.55580268    -0.14080
F564        F  0.14349857  0.24748405  0.55895006    -0.16440
F565        F  0.10500581  0.30735430  0.66601861    -0.16440
F566        F  0.10620245  0.25100607  0.66916583    -0.14080
C567        C  0.39898683  0.29187158  0.60867156     0.23930
C568        C  0.37391316  0.30655508  0.61106785    -0.24170
C569        C  0.34910080  0.29185170  0.61624731     0.18840
C570        C  0.34935939  0.26303641  0.61897689     0.23960
C571        C  0.37443335  0.24835279  0.61657616    -0.24120
C572        C  0.39924549  0.26305678  0.61140145     0.18780
F573        F  0.42393883  0.24964372  0.61009310    -0.14080
F574        F  0.42343130  0.30545097  0.60485186    -0.16440
F575        F  0.32491480  0.24945725  0.62279817    -0.16440
F576        F  0.32440754  0.30526503  0.61755810    -0.14080
N577        N  0.91637532  0.09876894  0.08017888    -0.26950
N578        N  0.90805567  0.07536358  0.09387408    -0.34810
C579        C  0.92292352  0.05435600  0.08106682     0.01390
C580        C  0.94107586  0.06516802  0.05788434     0.07410
C581        C  0.93633288  0.09330649  0.05791764    -0.05690
H582        H  0.92035587  0.03284183  0.08770356     0.08080
H583        H  0.94690424  0.10876773  0.04319941     0.09280
Cu584      Cu  0.87604128  0.07344137  0.12816446     0.44170
Cu585      Cu  0.90129627  0.13729865  0.09303695     0.41990
Cu586      Cu  0.84924096  0.13986004  0.15686559     0.43880
N587        N  0.84350070  0.07776807  0.16142511    -0.34340
N588        N  0.83463129  0.10182111  0.17290162    -0.28590
C589        C  0.81390329  0.09734582  0.19454537    -0.04690
C590        C  0.80924915  0.06920662  0.19633138     0.07520
C591        C  0.82824966  0.05739354  0.17496192     0.01320
H592        H  0.80250830  0.11344765  0.20723752     0.08970
H593        H  0.83090833  0.03561669  0.16974489     0.08050
N594        N  0.86542167  0.17478788  0.13419543    -0.35790
N595        N  0.88467344  0.17374692  0.11092030    -0.27970
C596        C  0.89093545  0.19958543  0.10127727    -0.03210
C597        C  0.87471162  0.21784946  0.11919396     0.05400
C598        C  0.85872756  0.20136544  0.13980060     0.03500
H599        H  0.90587849  0.20462024  0.08217458     0.08600
H600        H  0.84356627  0.20815543  0.15783966     0.07430
O601        O  0.96994711  0.06181061  0.01069086    -0.72610
O602        O  0.52725316  0.02393717  0.45500008    -0.73590
O603        O  0.96812526  0.02365335  0.45709193    -0.62210
O604        O  0.52807693  0.06204100  0.00861067    -0.70620
O605        O  0.52953764  0.02698084  0.04415342    -0.70170
O606        O  0.96943668  0.98840448  0.49237785    -0.61420
O607        O  0.52779862  0.98864908  0.49026366    -0.73930
O608        O  0.97030360  0.02670800  0.04621992    -0.72710
Cu609      Cu  0.99830710  0.04402583  0.48156159     1.04560
Cu610      Cu  0.99931296  0.00646184  0.01956647     1.04330
C611        C  0.96128960  0.05041129  0.03730324     0.93590
C612        C  0.53643262  0.00027651  0.46375525     0.92730
C613        C  0.95944410  0.99995693  0.46649100     0.84880
C614        C  0.53807475  0.05070793  0.03461274     0.91150
N615        N  0.66449669  0.10230150  0.17085843    -0.26950
N616        N  0.65649943  0.07831562  0.15823080    -0.34810
C617        C  0.67181885  0.05799576  0.17175294     0.01390
C618        C  0.69000611  0.06973474  0.19429161     0.07410
C619        C  0.68479314  0.09781451  0.19319026    -0.05690
H620        H  0.66969024  0.03628106  0.16580735     0.08080
H621        H  0.69542943  0.11387130  0.20696442     0.09280
Cu622      Cu  0.62483911  0.07402756  0.12366096     0.44170
Cu623      Cu  0.64902411  0.14022882  0.15544464     0.41990
Cu624      Cu  0.60193638  0.13744783  0.08549704     0.43880
N625        N  0.59316495  0.07581727  0.08882159    -0.34340
N626        N  0.58557601  0.09900423  0.07403684    -0.28590
C627        C  0.56510222  0.09346099  0.05233944    -0.04690
C628        C  0.55934318  0.06550294  0.05377166     0.07520
C629        C  0.57741182  0.05490626  0.07723516     0.01320
H630        H  0.55477087  0.10877838  0.03715995     0.08970
H631        H  0.57913439  0.03360671  0.08513536     0.08050
N632        N  0.61752634  0.17390988  0.10503224    -0.35790
N633        N  0.63367433  0.17505191  0.13159862    -0.27970
C634        C  0.63874236  0.20170892  0.13903214    -0.03210
C635        C  0.62541306  0.21799590  0.11576518     0.05400
C636        C  0.61223208  0.19975167  0.09454686     0.03500
H637        H  0.65148593  0.20870156  0.15956778     0.08600
H638        H  0.59924497  0.20488576  0.07347225     0.07430
N639        N  0.83283368  0.95618131  0.32781268    -0.26950
N640        N  0.84041701  0.97941732  0.34258689    -0.34810
C641        C  0.82510640  0.00036586  0.33041161     0.01390
C642        C  0.80737010  0.98972875  0.30655441     0.07410
C643        C  0.81284907  0.96171956  0.30551012    -0.05690
H644        H  0.82700480  0.02173283  0.33805818     0.08080
H645        H  0.80271170  0.94638251  0.29009695     0.09280
Cu646      Cu  0.87180733  0.98122355  0.37780464     0.44170
Cu647      Cu  0.84871133  0.91774406  0.33981275     0.41990
Cu648      Cu  0.89700125  0.91502001  0.40847532     0.43880
N649        N  0.90375718  0.97702099  0.41198440    -0.34340
N650        N  0.91210777  0.95305089  0.42421086    -0.28590
C651        C  0.93279331  0.95760875  0.44602520    -0.04690
C652        C  0.93791461  0.98571486  0.44716298     0.07520
C653        C  0.91924451  0.99740048  0.42522778     0.01320
H654        H  0.94388809  0.94157027  0.45921145     0.08970
H655        H  0.91704637  0.01909917  0.41931539     0.08050
N656        N  0.88174754  0.88018731  0.38442215    -0.35790
N657        N  0.86461069  0.88131931  0.35879711    -0.27970
C658        C  0.85919880  0.85550765  0.34823550    -0.03210
C659        C  0.87357113  0.83714801  0.36820175     0.05400
C660        C  0.88762995  0.85356157  0.39092039     0.03500
H661        H  0.84541237  0.85051435  0.32783636     0.08600
H662        H  0.90152148  0.84672921  0.41039484     0.07430
O663        O  0.77768006  0.99327395  0.25994240    -0.72610
O664        O  0.71977420  0.03178653  0.20554684    -0.73590
O665        O  0.77893906  0.03145645  0.20653617    -0.62210
O666        O  0.71952945  0.99357849  0.25906457    -0.70620
O667        O  0.71879083  0.02867518  0.29468359    -0.70170
O668        O  0.77839007  0.06667415  0.24199155    -0.61420
O669        O  0.71999572  0.06701738  0.24098157    -0.73930
O670        O  0.77804101  0.02829385  0.29567662    -0.72710
Cu671      Cu  0.74897791  0.01135880  0.23147329     1.04560
Cu672      Cu  0.74879936  0.04888611  0.26964658     1.04330
C673        C  0.78681315  0.00456720  0.28646208     0.93590
C674        C  0.71086549  0.05549288  0.21457681     0.92730
C675        C  0.78792442  0.05507049  0.21590805     0.84880
C676        C  0.71001267  0.00498279  0.28526718     0.91150
N677        N  0.66410717  0.95659296  0.32660329    -0.26950
N678        N  0.65536120  0.98002137  0.33987128    -0.34810
C679        C  0.67041413  0.00105306  0.32740947     0.01390
C680        C  0.68913190  0.99023547  0.30488916     0.07410
C681        C  0.68452542  0.96206603  0.30494515    -0.05690
H682        H  0.66770281  0.02257354  0.33396174     0.08080
H683        H  0.69559406  0.94658229  0.29079984     0.09280
Cu684      Cu  0.62284345  0.98196978  0.37350997     0.44170
Cu685      Cu  0.64919913  0.91799549  0.33948161     0.41990
Cu686      Cu  0.59568037  0.91559703  0.40151503     0.43880
N687        N  0.59040213  0.97764881  0.40694995    -0.34340
N688        N  0.58141166  0.95355682  0.41816694    -0.28590
C689        C  0.56116880  0.95797644  0.44047216    -0.04690
C690        C  0.55694615  0.98613566  0.44298151     0.07520
C691        C  0.57568425  0.99801357  0.42131485     0.01320
H692        H  0.54991865  0.94184304  0.45329840     0.08970
H693        H  0.57866271  0.01983145  0.41663905     0.08050
N694        N  0.61253949  0.88062387  0.37972767    -0.35790
N695        N  0.63235274  0.88158061  0.35716357    -0.27970
C696        C  0.63915729  0.85569161  0.34829358    -0.03210
C697        C  0.62270945  0.83738944  0.36598738     0.05400
C698        C  0.60603956  0.85405731  0.38566254     0.03500
H699        H  0.65529208  0.85069507  0.33064910     0.08600
H700        H  0.59007475  0.84750274  0.40278979     0.07430
N701        N  0.91463307  0.59877119  0.39928535    -0.26950
N702        N  0.90698696  0.57552282  0.38458536    -0.34810
C703        C  0.92228865  0.55457138  0.39676453     0.01390
C704        C  0.94008525  0.56521685  0.42054987     0.07410
C705        C  0.93465148  0.59323679  0.42154848    -0.05690
H706        H  0.92036517  0.53320043  0.38914275     0.08080
H707        H  0.94486335  0.60858566  0.43687334     0.09280
Cu708      Cu  0.87557326  0.57369943  0.34940223     0.44170
Cu709      Cu  0.89883018  0.63721702  0.38717153     0.41990
Cu710      Cu  0.85054512  0.63987204  0.31848578     0.43880
N711        N  0.84365174  0.57787904  0.31518365    -0.34340
N712        N  0.83536559  0.60183861  0.30286605    -0.28590
C713        C  0.81471524  0.59727288  0.28100799    -0.04690
C714        C  0.80954831  0.56917361  0.27993489     0.07520
C715        C  0.82815602  0.55749854  0.30195462     0.01320
H716        H  0.80369322  0.61330240  0.26771823     0.08970
H717        H  0.83032721  0.53580450  0.30790565     0.08050
N718        N  0.86584004  0.67472947  0.34244585    -0.35790
N719        N  0.88297396  0.67362317  0.36807574    -0.27970
C720        C  0.88839022  0.69944576  0.37859280    -0.03210
C721        C  0.87402152  0.71778566  0.35859598     0.05400
C722        C  0.85996391  0.70134932  0.33590069     0.03500
H723        H  0.90216415  0.70445884  0.39899718     0.08600
H724        H  0.84606434  0.70816151  0.31642429     0.07430
N725        N  0.91359845  0.45307689  0.05450867    -0.26950
N726        N  0.90472047  0.47713191  0.06596939    -0.34810
C727        C  0.91988164  0.49751499  0.05230703     0.01390
C728        C  0.93882892  0.48570605  0.03086669     0.07410
C729        C  0.93424031  0.45755909  0.03274735    -0.05690
H730        H  0.91718100  0.51929623  0.05746466     0.08080
H731        H  0.94561169  0.44146029  0.02001915     0.09280
Cu732      Cu  0.87223112  0.48145097  0.09929974     0.44170
Cu733      Cu  0.89906943  0.41503681  0.07067007     0.41990
Cu734      Cu  0.84701784  0.41760669  0.13451201     0.43880
N735        N  0.84016977  0.47952523  0.13352284    -0.34340
N736        N  0.83185913  0.45612771  0.14724457    -0.28590
C737        C  0.81181515  0.46158548  0.16939439    -0.04690
C738        C  0.80700720  0.48971179  0.16932370     0.07520
C739        C  0.82521237  0.50052235  0.14620117     0.01320
H740        H  0.80121682  0.44612600  0.18408741     0.08970
H741        H  0.82773599  0.52202712  0.13949614     0.08050
N742        N  0.86366971  0.38116145  0.11667676    -0.35790
N743        N  0.88291888  0.38011391  0.09339871    -0.27970
C744        C  0.88961664  0.35353395  0.08781389    -0.03210
C745        C  0.87363727  0.33705753  0.10843611     0.05400
C746        C  0.85741302  0.35532753  0.12634131     0.03500
H747        H  0.90477211  0.34673595  0.06977189     0.08600
H748        H  0.84246805  0.35030029  0.14544449     0.07430
N749        N  0.66593144  0.60133621  0.30790171    -0.26950
N750        N  0.65694127  0.57725781  0.31916149    -0.34810
C751        C  0.67170927  0.55687891  0.30490069     0.01390
C752        C  0.69048245  0.56873179  0.28325865     0.07410
C753        C  0.68622740  0.59689166  0.28567379    -0.05690
H754        H  0.66875562  0.53506849  0.30964876     0.08080
H755        H  0.69750056  0.61301090  0.27285069     0.09280
Cu756      Cu  0.62447271  0.57296655  0.35256607     0.44170
Cu757      Cu  0.65161747  0.63931843  0.32442188     0.41990
Cu758      Cu  0.59808605  0.63696656  0.38644510     0.43880
N759        N  0.59198029  0.57493830  0.38623470    -0.34340
N760        N  0.58322663  0.59838133  0.39945706    -0.28590
C761        C  0.56286236  0.59292329  0.42119401    -0.04690
C762        C  0.55829832  0.56474723  0.42134722     0.07520
C763        C  0.57698435  0.55391054  0.39880282     0.01320
H764        H  0.55181189  0.60841804  0.43534225     0.08970
H765        H  0.57972892  0.53237859  0.39232635     0.08050
N766        N  0.61490286  0.67336734  0.36868020    -0.35790
N767        N  0.63472034  0.67431111  0.34612052    -0.27970
C768        C  0.64121012  0.70087558  0.34015104    -0.03210
C769        C  0.62453100  0.71755384  0.35980241     0.05400
C770        C  0.60808584  0.69926097  0.37751294     0.03500
H771        H  0.65718149  0.70742203  0.32302806     0.08600
H772        H  0.59195194  0.70426600  0.39515515     0.07430
O773        O  0.96944839  0.52665406  0.43125611    -0.72610
O774        O  0.52781478  0.48796445  0.48545369    -0.73590
O775        O  0.96942015  0.48826573  0.48494560    -0.62210
O776        O  0.52869594  0.52630642  0.43176842    -0.70620
O777        O  0.52813967  0.56139965  0.46739823    -0.70170
O778        O  0.96904243  0.52348558  0.02040115    -0.61420
O779        O  0.52821451  0.52317959  0.02090992    -0.73930
O780        O  0.96998546  0.56168032  0.46697925    -0.72710
Cu781      Cu  0.99884054  0.50607762  0.45704392     1.04560
Cu782      Cu  0.99885351  0.54360185  0.49522321     1.04330
C783        C  0.96072286  0.55038216  0.44052596     0.93590
C784        C  0.53709053  0.49948492  0.01178663     0.92730
C785        C  0.96002650  0.49986123  0.01110845     0.84880
C786        C  0.53751848  0.54999985  0.44112099     0.91150
O787        O  0.71986221  0.56619689  0.23618801    -0.72610
O788        O  0.77767351  0.52814330  0.18071344    -0.73590
O789        O  0.71843450  0.52784909  0.18230563    -0.62210
O790        O  0.77823180  0.56646094  0.23452622    -0.70620
O791        O  0.77936438  0.53123453  0.26985333    -0.70170
O792        O  0.71972135  0.49278558  0.21785305    -0.61420
O793        O  0.77786335  0.49305926  0.21627172    -0.73930
O794        O  0.72022198  0.53091722  0.27146713    -0.72710
Cu795      Cu  0.74851143  0.54838518  0.20712117     1.04560
Cu796      Cu  0.74932670  0.51083366  0.24515082     1.04330
C797        C  0.71109011  0.55457645  0.26263506     0.93590
C798        C  0.78666066  0.50445481  0.18972379     0.92730
C799        C  0.70986734  0.50411108  0.19176623     0.84880
C800        C  0.78809532  0.55492427  0.26049299     0.91150
N801        N  0.58379867  0.45266537  0.05494703    -0.26950
N802        N  0.59175156  0.47662060  0.06769776    -0.34810
C803        C  0.57630837  0.49694661  0.05439099     0.01390
C804        C  0.55808098  0.48524240  0.03187221     0.07410
C805        C  0.56340382  0.45717923  0.03275602    -0.05690
H806        H  0.57836896  0.51864013  0.06048213     0.08080
H807        H  0.55277483  0.44114574  0.01893409     0.09280
Cu808      Cu  0.62346726  0.48084763  0.10220436     0.44170
Cu809      Cu  0.59943555  0.41472009  0.07002903     0.41990
Cu810      Cu  0.64653473  0.41732694  0.13997701     0.43880
N811        N  0.65508488  0.47900456  0.13711244    -0.34340
N812        N  0.66272330  0.45577946  0.15177421    -0.28590
C813        C  0.68309537  0.46130977  0.17361709    -0.04690
C814        C  0.68873676  0.48930030  0.17240407     0.07520
C815        C  0.67070765  0.49992712  0.14891773     0.01320
H816        H  0.69343650  0.44596768  0.18875036     0.08970
H817        H  0.66891060  0.52125792  0.14116516     0.08050
N818        N  0.63104127  0.38090749  0.12019846    -0.35790
N819        N  0.61488774  0.37983569  0.09363280    -0.27970
C820        C  0.60983499  0.35319837  0.08607823    -0.03210
C821        C  0.62318161  0.33684902  0.10926603     0.05400
C822        C  0.63635458  0.35503669  0.13056274     0.03500
H823        H  0.59705975  0.34626255  0.06554345     0.08600
H824        H  0.64931825  0.34984589  0.15163821     0.07430
C825        C  0.63053453  0.79302467  0.33482545     0.23930
C826        C  0.62310221  0.80672359  0.36438270    -0.24170
C827        C  0.61619510  0.79079122  0.39242544     0.18840
C828        C  0.61671764  0.76191927  0.39095952     0.23880
C829        C  0.62414584  0.74821978  0.36140176    -0.24120
C830        C  0.63105741  0.76415133  0.33335966     0.18780
F831        F  0.63745089  0.75190238  0.30401432    -0.14080
F832        F  0.63645126  0.80745948  0.30682477    -0.16440
F833        F  0.61080607  0.74748629  0.41896305    -0.16440
F834        F  0.60980762  0.80303764  0.42177405    -0.14080
C835        C  0.87441163  0.79025448  0.39460167     0.23930
C836        C  0.87375725  0.80661164  0.36574729    -0.24170
C837        C  0.87312213  0.79352945  0.33451115     0.18840
C838        C  0.87314140  0.76467889  0.33218442     0.23880
C839        C  0.87380724  0.74832249  0.36103997    -0.24120
C840        C  0.87443047  0.76140566  0.39227514     0.18780
F841        F  0.87411157  0.74630554  0.42068036    -0.14080
F842        F  0.87405927  0.80213741  0.42516712    -0.16440
F843        F  0.87348531  0.75279413  0.30161973    -0.16440
F844        F  0.87343148  0.80863159  0.30610717    -0.14080
C845        C  0.63361731  0.26207355  0.08520997     0.23930
C846        C  0.62492942  0.24838541  0.11413986    -0.24170
C847        C  0.61554199  0.26388872  0.14139446     0.18840
C848        C  0.61489161  0.29276656  0.13975987     0.23880
C849        C  0.62359921  0.30645676  0.11084124    -0.24120
C850        C  0.63296698  0.29095388  0.08357532     0.18780
F851        F  0.64230185  0.30383826  0.05580275    -0.14080
F852        F  0.64349865  0.24748405  0.05895013    -0.16440
F853        F  0.60500570  0.30735430  0.16601858    -0.16440
F854        F  0.60620233  0.25100607  0.16916581    -0.14080
C855        C  0.89898682  0.29187157  0.10867157     0.23930
C856        C  0.87391315  0.30655507  0.11106784    -0.24170
C857        C  0.84910079  0.29185169  0.11624728     0.18840
C858        C  0.84935938  0.26303640  0.11897686     0.23960
C859        C  0.87443334  0.24835279  0.11657616    -0.24120
C860        C  0.89924548  0.26305677  0.11140146     0.18780
F861        F  0.92393882  0.24964371  0.11009313    -0.14080
F862        F  0.92343130  0.30545097  0.10485189    -0.16440
F863        F  0.82491479  0.24945725  0.12279813    -0.16440
F864        F  0.82440753  0.30526503  0.11755805    -0.14080
N865        N  0.91637534  0.09876894  0.58017891    -0.26950
N866        N  0.90805570  0.07536358  0.59387411    -0.34810
C867        C  0.92292354  0.05435600  0.58106684     0.01390
C868        C  0.94107588  0.06516802  0.55788436     0.07410
C869        C  0.93633291  0.09330649  0.55791767    -0.05690
H870        H  0.92035588  0.03284183  0.58770357     0.08080
H871        H  0.94690427  0.10876773  0.54319944     0.09280
Cu872      Cu  0.87604130  0.07344137  0.62816449     0.44170
Cu873      Cu  0.90129631  0.13729865  0.59303699     0.41990
Cu874      Cu  0.84924099  0.13986004  0.65686561     0.43880
N875        N  0.84350072  0.07776807  0.66142513    -0.34340
N876        N  0.83463131  0.10182112  0.67290164    -0.28590
C877        C  0.81390330  0.09734583  0.69454538    -0.04690
C878        C  0.80924916  0.06920663  0.69633139     0.07520
C879        C  0.82824967  0.05739354  0.67496193     0.01320
H880        H  0.80250831  0.11344766  0.70723754     0.08970
H881        H  0.83090834  0.03561669  0.66974490     0.08050
N882        N  0.86542171  0.17478788  0.63419546    -0.35790
N883        N  0.88467347  0.17374692  0.61092033    -0.27970
C884        C  0.89093549  0.19958543  0.60127730    -0.03210
C885        C  0.87471166  0.21784946  0.61919398     0.05400
C886        C  0.85872759  0.20136544  0.63980063     0.03500
H887        H  0.90587853  0.20462024  0.58217461     0.08600
H888        H  0.84356630  0.20815544  0.65783969     0.07430
O889        O  0.96994712  0.06181061  0.51069088    -0.72610
O890        O  0.52725317  0.02393718  0.95500009    -0.73590
O891        O  0.96812526  0.02365335  0.95709193    -0.62210
O892        O  0.52807694  0.06204100  0.50861067    -0.70620
O893        O  0.52953764  0.02698084  0.54415341    -0.70170
O894        O  0.96943668  0.98840449  0.99237785    -0.61420
O895        O  0.52779862  0.98864909  0.99026366    -0.73930
O896        O  0.97030361  0.02670799  0.54621993    -0.72710
Cu897      Cu  0.99830710  0.04402583  0.98156159     1.04560
Cu898      Cu  0.99931296  0.00646184  0.51956647     1.04330
C899        C  0.96128961  0.05041128  0.53730325     0.93590
C900        C  0.53643262  0.00027651  0.96375525     0.92730
C901        C  0.95944411  0.99995693  0.96649100     0.84880
C902        C  0.53807476  0.05070792  0.53461273     0.91150
N903        N  0.66449668  0.10230151  0.67085844    -0.26950
N904        N  0.65649943  0.07831563  0.65823080    -0.34810
C905        C  0.67181885  0.05799576  0.67175295     0.01390
C906        C  0.69000611  0.06973475  0.69429162     0.07410
C907        C  0.68479314  0.09781451  0.69319027    -0.05690
H908        H  0.66969025  0.03628106  0.66580735     0.08080
H909        H  0.69542942  0.11387130  0.70696442     0.09280
Cu910      Cu  0.62483912  0.07402755  0.62366096     0.44170
Cu911      Cu  0.64902410  0.14022882  0.65544464     0.41990
Cu912      Cu  0.60193641  0.13744783  0.58549700     0.43880
N913        N  0.59316496  0.07581727  0.58882157    -0.34340
N914        N  0.58557603  0.09900422  0.57403681    -0.28590
C915        C  0.56510224  0.09346099  0.55233941    -0.04690
C916        C  0.55934319  0.06550293  0.55377165     0.07520
C917        C  0.57741182  0.05490626  0.57723515     0.01320
H918        H  0.55477090  0.10877837  0.53715991     0.08970
H919        H  0.57913438  0.03360671  0.58513537     0.08050
N920        N  0.61752636  0.17390988  0.60503221    -0.35790
N921        N  0.63367433  0.17505191  0.63159860    -0.27970
C922        C  0.63874236  0.20170892  0.63903212    -0.03210
C923        C  0.62541307  0.21799590  0.61576515     0.05400
C924        C  0.61223211  0.19975166  0.59454682     0.03500
H925        H  0.65148591  0.20870156  0.65956778     0.08600
H926        H  0.59924501  0.20488575  0.57347219     0.07430
N927        N  0.83283367  0.95618131  0.82781269    -0.26950
N928        N  0.84041700  0.97941733  0.84258690    -0.34810
C929        C  0.82510640  0.00036587  0.83041161     0.01390
C930        C  0.80737010  0.98972876  0.80655441     0.07410
C931        C  0.81284906  0.96171957  0.80551013    -0.05690
H932        H  0.82700480  0.02173284  0.83805818     0.08080
H933        H  0.80271169  0.94638251  0.79009696     0.09280
Cu934      Cu  0.87180733  0.98122355  0.87780464     0.44170
Cu935      Cu  0.84871131  0.91774406  0.83981278     0.41990
Cu936      Cu  0.89700124  0.91502001  0.90847533     0.43880
N937        N  0.90375718  0.97702099  0.91198440    -0.34340
N938        N  0.91210777  0.95305089  0.92421086    -0.28590
C939        C  0.93279331  0.95760875  0.94602521    -0.04690
C940        C  0.93791461  0.98571486  0.94716298     0.07520
C941        C  0.91924452  0.99740048  0.92522777     0.01320
H942        H  0.94388809  0.94157027  0.95921145     0.08970
H943        H  0.91704637  0.01909917  0.91931538     0.08050
N944        N  0.88174752  0.88018731  0.88442217    -0.35790
N945        N  0.86461066  0.88131931  0.85879713    -0.27970
C946        C  0.85919877  0.85550765  0.84823553    -0.03210
C947        C  0.87357111  0.83714800  0.86820178     0.05400
C948        C  0.88762993  0.85356157  0.89092041     0.03500
H949        H  0.84541233  0.85051434  0.82783640     0.08600
H950        H  0.90152146  0.84672921  0.91039486     0.07430
O951        O  0.77768006  0.99327396  0.75994240    -0.72610
O952        O  0.71977420  0.03178654  0.70554684    -0.73590
O953        O  0.77893906  0.03145646  0.70653618    -0.62210
O954        O  0.71952945  0.99357850  0.75906457    -0.70620
O955        O  0.71879083  0.02867519  0.79468359    -0.70170
O956        O  0.77839007  0.06667416  0.74199156    -0.61420
O957        O  0.71999572  0.06701739  0.74098158    -0.73930
O958        O  0.77804101  0.02829386  0.79567662    -0.72710
Cu959      Cu  0.74897791  0.01135881  0.73147329     1.04560
Cu960      Cu  0.74879936  0.04888612  0.76964658     1.04330
C961        C  0.78681315  0.00456721  0.78646208     0.93590
C962        C  0.71086549  0.05549289  0.71457681     0.92730
C963        C  0.78792442  0.05507050  0.71590805     0.84880
C964        C  0.71001268  0.00498280  0.78526718     0.91150
N965        N  0.66410717  0.95659297  0.82660329    -0.26950
N966        N  0.65536120  0.98002137  0.83987128    -0.34810
C967        C  0.67041413  0.00105307  0.82740947     0.01390
C968        C  0.68913191  0.99023548  0.80488916     0.07410
C969        C  0.68452542  0.96206603  0.80494515    -0.05690
H970        H  0.66770280  0.02257355  0.83396174     0.08080
H971        H  0.69559407  0.94658230  0.79079984     0.09280
Cu972      Cu  0.62284345  0.98196978  0.87350997     0.44170
Cu973      Cu  0.64919914  0.91799549  0.83948161     0.41990
Cu974      Cu  0.59568039  0.91559704  0.90151505     0.43880
N975        N  0.59040214  0.97764882  0.90694995    -0.34340
N976        N  0.58141167  0.95355682  0.91816695    -0.28590
C977        C  0.56116881  0.95797645  0.94047217    -0.04690
C978        C  0.55694616  0.98613567  0.94298152     0.07520
C979        C  0.57568426  0.99801357  0.92131486     0.01320
H980        H  0.54991867  0.94184304  0.95329842     0.08970
H981        H  0.57866271  0.01983145  0.91663904     0.08050
N982        N  0.61253950  0.88062387  0.87972769    -0.35790
N983        N  0.63235276  0.88158061  0.85716358    -0.27970
C984        C  0.63915730  0.85569161  0.84829359    -0.03210
C985        C  0.62270946  0.83738945  0.86598739     0.05400
C986        C  0.60603958  0.85405731  0.88566255     0.03500
H987        H  0.65529209  0.85069508  0.83064910     0.08600
H988        H  0.59007477  0.84750274  0.90278981     0.07430
N989        N  0.91463306  0.59877119  0.89928537    -0.26950
N990        N  0.90698695  0.57552282  0.88458537    -0.34810
C991        C  0.92228864  0.55457137  0.89676454     0.01390
C992        C  0.94008525  0.56521685  0.92054987     0.07410
C993        C  0.93465148  0.59323679  0.92154848    -0.05690
H994        H  0.92036516  0.53320043  0.88914276     0.08080
H995        H  0.94486335  0.60858565  0.93687334     0.09280
Cu996      Cu  0.87557324  0.57369943  0.84940226     0.44170
Cu997      Cu  0.89883017  0.63721701  0.88717155     0.41990
Cu998      Cu  0.85054509  0.63987204  0.81848583     0.43880
N999        N  0.84365171  0.57787903  0.81518368    -0.34340
N1000       N  0.83536555  0.60183861  0.80286609    -0.28590
C1001       C  0.81471521  0.59727288  0.78100803    -0.04690
C1002       C  0.80954828  0.56917361  0.77993492     0.07520
C1003       C  0.82815599  0.55749854  0.80195464     0.01320
H1004       H  0.80369319  0.61330240  0.76771827     0.08970
H1005       H  0.83032719  0.53580450  0.80790567     0.08050
N1006       N  0.86584001  0.67472947  0.84244589    -0.35790
N1007       N  0.88297394  0.67362317  0.86807578    -0.27970
C1008       C  0.88839021  0.69944576  0.87859283    -0.03210
C1009       C  0.87402149  0.71778566  0.85859602     0.05400
C1010       C  0.85996388  0.70134932  0.83590074     0.03500
H1011       H  0.90216414  0.70445884  0.89899721     0.08600
H1012       H  0.84606429  0.70816150  0.81642434     0.07430
N1013       N  0.91359845  0.45307690  0.55450869    -0.26950
N1014       N  0.90472047  0.47713191  0.56596941    -0.34810
C1015       C  0.91988163  0.49751500  0.55230704     0.01390
C1016       C  0.93882892  0.48570606  0.53086671     0.07410
C1017       C  0.93424031  0.45755910  0.53274737    -0.05690
H1018       H  0.91718100  0.51929624  0.55746468     0.08080
H1019       H  0.94561169  0.44146030  0.52001916     0.09280
Cu1020     Cu  0.87223113  0.48145097  0.59929978     0.44170
Cu1021     Cu  0.89906944  0.41503682  0.57067010     0.41990
Cu1022     Cu  0.84701787  0.41760669  0.63451206     0.43880
N1023       N  0.84016979  0.47952523  0.63352288    -0.34340
N1024       N  0.83185916  0.45612771  0.64724462    -0.28590
C1025       C  0.81181517  0.46158548  0.66939444    -0.04690
C1026       C  0.80700721  0.48971178  0.66932374     0.07520
C1027       C  0.82521238  0.50052234  0.64620121     0.01320
H1028       H  0.80121685  0.44612599  0.68408746     0.08970
H1029       H  0.82773599  0.52202711  0.63949616     0.08050
N1030       N  0.86366974  0.38116145  0.61667681    -0.35790
N1031       N  0.88291890  0.38011392  0.59339874    -0.27970
C1032       C  0.88961666  0.35353395  0.58781392    -0.03210
C1033       C  0.87363730  0.33705754  0.60843614     0.05400
C1034       C  0.85741306  0.35532753  0.62634135     0.03500
H1035       H  0.90477212  0.34673596  0.56977190     0.08600
H1036       H  0.84246810  0.35030029  0.64544454     0.07430
N1037       N  0.66593142  0.60133621  0.80790168    -0.26950
N1038       N  0.65694124  0.57725782  0.81916146    -0.34810
C1039       C  0.67170925  0.55687892  0.80490066     0.01390
C1040       C  0.69048242  0.56873179  0.78325863     0.07410
C1041       C  0.68622737  0.59689166  0.78567376    -0.05690
H1042       H  0.66875560  0.53506849  0.80964874     0.08080
H1043       H  0.69750053  0.61301090  0.77285066     0.09280
Cu1044     Cu  0.62447269  0.57296656  0.85256605     0.44170
Cu1045     Cu  0.65161745  0.63931844  0.82442185     0.41990
Cu1046     Cu  0.59808604  0.63696657  0.88644508     0.43880
N1047       N  0.59198028  0.57493830  0.88623469    -0.34340
N1048       N  0.58322661  0.59838134  0.89945705    -0.28590
C1049       C  0.56286235  0.59292330  0.92119401    -0.04690
C1050       C  0.55829831  0.56474723  0.92134722     0.07520
C1051       C  0.57698433  0.55391055  0.89880281     0.01320
H1052       H  0.55181188  0.60841804  0.93534225     0.08970
H1053       H  0.57972891  0.53237859  0.89232634     0.08050
N1054       N  0.61490284  0.67336734  0.86868018    -0.35790
N1055       N  0.63472032  0.67431112  0.84612049    -0.27970
C1056       C  0.64121011  0.70087559  0.84015102    -0.03210
C1057       C  0.62453099  0.71755384  0.85980239     0.05400
C1058       C  0.60808583  0.69926098  0.87751293     0.03500
H1059       H  0.65718147  0.70742203  0.82302803     0.08600
H1060       H  0.59195193  0.70426601  0.89515515     0.07430
O1061       O  0.96944839  0.52665406  0.93125611    -0.72610
O1062       O  0.52781478  0.48796445  0.98545369    -0.73590
O1063       O  0.96942015  0.48826572  0.98494559    -0.62210
O1064       O  0.52869594  0.52630643  0.93176843    -0.70620
O1065       O  0.52813967  0.56139965  0.96739824    -0.70170
O1066       O  0.96904242  0.52348559  0.52040115    -0.61420
O1067       O  0.52821450  0.52317959  0.52090992    -0.73930
O1068       O  0.96998546  0.56168031  0.96697925    -0.72710
Cu1069     Cu  0.99884054  0.50607762  0.95704391     1.04560
Cu1070     Cu  0.99885351  0.54360184  0.99522320     1.04330
C1071       C  0.96072286  0.55038216  0.94052596     0.93590
C1072       C  0.53709053  0.49948492  0.51178662     0.92730
C1073       C  0.96002649  0.49986124  0.51110846     0.84880
C1074       C  0.53751848  0.54999986  0.94112100     0.91150
O1075       O  0.71986220  0.56619689  0.73618800    -0.72610
O1076       O  0.77767352  0.52814330  0.68071346    -0.73590
O1077       O  0.71843450  0.52784908  0.68230562    -0.62210
O1078       O  0.77823179  0.56646093  0.73452624    -0.70620
O1079       O  0.77936436  0.53123453  0.76985335    -0.70170
O1080       O  0.71972135  0.49278557  0.71785305    -0.61420
O1081       O  0.77786334  0.49305925  0.71627175    -0.73930
O1082       O  0.72022195  0.53091722  0.77146712    -0.72710
Cu1083     Cu  0.74851142  0.54838518  0.70712117     1.04560
Cu1084     Cu  0.74932668  0.51083366  0.74515083     1.04330
C1085       C  0.71109009  0.55457645  0.76263505     0.93590
C1086       C  0.78666067  0.50445481  0.68972382     0.92730
C1087       C  0.70986734  0.50411107  0.69176623     0.84880
C1088       C  0.78809530  0.55492426  0.76049301     0.91150
N1089       N  0.58379867  0.45266537  0.55494702    -0.26950
N1090       N  0.59175156  0.47662060  0.56769776    -0.34810
C1091       C  0.57630837  0.49694662  0.55439098     0.01390
C1092       C  0.55808097  0.48524240  0.53187221     0.07410
C1093       C  0.56340382  0.45717923  0.53275601    -0.05690
H1094       H  0.57836896  0.51864013  0.56048213     0.08080
H1095       H  0.55277483  0.44114574  0.51893408     0.09280
Cu1096     Cu  0.62346726  0.48084763  0.60220435     0.44170
Cu1097     Cu  0.59943555  0.41472009  0.57002902     0.41990
Cu1098     Cu  0.64653472  0.41732694  0.63997701     0.43880
N1099       N  0.65508488  0.47900456  0.63711243    -0.34340
N1100       N  0.66272329  0.45577946  0.65177420    -0.28590
C1101       C  0.68309537  0.46130976  0.67361708    -0.04690
C1102       C  0.68873676  0.48930030  0.67240406     0.07520
C1103       C  0.67070765  0.49992712  0.64891771     0.01320
H1104       H  0.69343649  0.44596767  0.68875036     0.08970
H1105       H  0.66891061  0.52125791  0.64116514     0.08050
N1106       N  0.63104126  0.38090749  0.62019846    -0.35790
N1107       N  0.61488774  0.37983569  0.59363279    -0.27970
C1108       C  0.60983499  0.35319837  0.58607822    -0.03210
C1109       C  0.62318160  0.33684902  0.60926602     0.05400
C1110       C  0.63635457  0.35503669  0.63056274     0.03500
H1111       H  0.59705976  0.34626255  0.56554343     0.08600
H1112       H  0.64931824  0.34984589  0.65163821     0.07430
C1113       C  0.63053453  0.79302468  0.83482545     0.23930
C1114       C  0.62310223  0.80672360  0.86438271    -0.24170
C1115       C  0.61619511  0.79079122  0.89242544     0.18840
C1116       C  0.61671765  0.76191928  0.89095951     0.23880
C1117       C  0.62414584  0.74821978  0.86140175    -0.24120
C1118       C  0.63105741  0.76415134  0.83335966     0.18780
F1119       F  0.63745088  0.75190239  0.80401432    -0.14080
F1120       F  0.63645126  0.80745949  0.80682477    -0.16440
F1121       F  0.61080608  0.74748629  0.91896304    -0.16440
F1122       F  0.60980764  0.80303764  0.92177406    -0.14080
C1123       C  0.87441163  0.79025448  0.89460170     0.23930
C1124       C  0.87375723  0.80661164  0.86574732    -0.24170
C1125       C  0.87312208  0.79352944  0.83451118     0.18840
C1126       C  0.87314135  0.76467889  0.83218446     0.23880
C1127       C  0.87380721  0.74832248  0.86104001    -0.24120
C1128       C  0.87443047  0.76140566  0.89227517     0.18780
F1129       F  0.87411158  0.74630554  0.92068040    -0.14080
F1130       F  0.87405928  0.80213741  0.92516715    -0.16440
F1131       F  0.87348525  0.75279413  0.80161977    -0.16440
F1132       F  0.87343142  0.80863158  0.80610720    -0.14080
C1133       C  0.63361729  0.26207355  0.58520994     0.23930
C1134       C  0.62492943  0.24838541  0.61413983    -0.24170
C1135       C  0.61554202  0.26388872  0.64139445     0.18840
C1136       C  0.61489164  0.29276655  0.63975986     0.23880
C1137       C  0.62359920  0.30645675  0.61084123    -0.24120
C1138       C  0.63296695  0.29095388  0.58357529     0.18780
F1139       F  0.64230180  0.30383826  0.55580271    -0.14080
F1140       F  0.64349861  0.24748406  0.55895008    -0.16440
F1141       F  0.60500574  0.30735429  0.66601859    -0.16440
F1142       F  0.60620239  0.25100606  0.66916581    -0.14080
C1143       C  0.89898685  0.29187158  0.60867159     0.23930
C1144       C  0.87391318  0.30655508  0.61106786    -0.24170
C1145       C  0.84910082  0.29185169  0.61624732     0.18840
C1146       C  0.84935942  0.26303640  0.61897690     0.23960
C1147       C  0.87443337  0.24835279  0.61657618    -0.24120
C1148       C  0.89924551  0.26305678  0.61140147     0.18780
F1149       F  0.92393886  0.24964372  0.61009313    -0.14080
F1150       F  0.92343133  0.30545097  0.60485190    -0.16440
F1151       F  0.82491482  0.24945725  0.62279816    -0.16440
F1152       F  0.82440756  0.30526503  0.61755809    -0.14080
loop_ 
_geom_bond_atom_site_label_1 
_geom_bond_atom_site_label_2 
_geom_bond_distance 
_geom_bond_site_symmetry_2 
_ccdc_geom_bond_type 
N1            N2   1.322       .  A
N1            C5   1.342       .  A
N1           Cu9   2.067       .  S
N2            C3   1.347       .  A
N2           Cu8   2.075       .  S
C3            C4   1.383       .  A
C3            H6   1.082       .  S
C4            C5   1.381       .  A
C4           C35   1.466       .  S
C5            H7   1.082       .  S
Cu8          N11   2.075       .  S
Cu9          N19   2.067       .  S
Cu10         N12   2.074       .  S
Cu10         N18   2.073       .  S
N11          N12   1.323       .  A
N11          C15   1.345       .  A
N12          C13   1.345       .  A
C13          C14   1.381       .  A
C13          H16   1.082       .  S
C14          C15   1.382       .  A
C14          C99   1.466       .  S
C15          H17   1.082       .  S
N18          N19   1.321       .  A
N18          C22   1.345       .  A
N19          C20   1.343       .  A
C20          C21   1.384       .  A
C20          H23   1.083       .  S
C21          C22   1.386       .  A
C21         C283   1.480       .  S
C22          H24   1.082       .  S
O25          C35   1.276       .  A
O25        Cu321   1.998   1_554  S
O26          C36   1.277       .  A
O26        Cu609   2.010   1_455  S
O27          C37   1.278   1_545  A
O27         Cu33   2.012       .  S
O28          C38   1.276       .  A
O28        Cu897   1.998   1_454  S
O29          C38   1.279       .  A
O29        Cu610   2.019   1_455  S
O30          C37   1.277       .  A
O30        Cu322   2.006   1_565  S
O31          C36   1.277   1_565  A
O31        Cu898   2.007   1_465  S
O32          C35   1.278       .  A
O32         Cu34   2.018       .  S
Cu33        O313   1.998       .  S
Cu33        O602   2.010       .  S
Cu33        O892   1.998       .  S
Cu33       Cu322   2.377       .  S
Cu34        O605   2.019       .  S
Cu34        O318   2.006   1_544  S
Cu34        O895   2.007   1_544  S
Cu34       Cu321   2.377   1_554  S
C36         C114   1.466   1_545  S
C37          C76   1.467       .  S
C38          C52   1.467       .  S
N39          N40   1.323       .  A
N39          C43   1.345       .  A
N39         Cu47   2.076       .  S
N40          C41   1.345       .  A
N40         Cu46   2.073       .  S
C41          C42   1.382       .  A
C41          H44   1.082       .  S
C42          C43   1.382       .  A
C42          C98   1.467       .  S
C43          H45   1.082       .  S
Cu46         N49   2.073       .  S
Cu47         N57   2.076       .  S
Cu48         N50   2.070       .  S
Cu48         N56   2.070       .  S
N49          N50   1.322       .  A
N49          C53   1.347       .  A
N50          C51   1.343       .  A
C51          C52   1.382       .  A
C51          H54   1.082       .  S
C52          C53   1.383       .  A
C53          H55   1.082       .  S
N56          N57   1.323       .  A
N56          C60   1.344       .  A
N57          C58   1.345       .  A
C58          C59   1.383       .  A
C58          H61   1.083       .  S
C59          C60   1.381       .  A
C59         C270   1.472       .  S
C60          H62   1.083       .  S
N63          N64   1.322       .  A
N63          C67   1.343       .  A
N63         Cu71   2.069       .  S
N64          C65   1.347   1_565  A
N64         Cu70   2.073       .  S
C65          C66   1.383   1_545  A
C65          H68   1.082       .  S
C66          C67   1.381       .  A
C66          C97   1.467   1_565  S
C67          H69   1.082       .  S
Cu70         N73   2.074       .  S
Cu71         N81   2.069       .  S
Cu72         N74   2.076       .  S
Cu72         N80   2.076       .  S
N73          N74   1.323       .  A
N73          C77   1.345       .  A
N74          C75   1.345       .  A
C75          C76   1.382       .  A
C75          H78   1.082       .  S
C76          C77   1.382       .  A
C77          H79   1.082   1_565  S
N80          N81   1.322       .  A
N80          C84   1.345       .  A
N81          C82   1.344       .  A
C82          C83   1.384       .  A
C82          H85   1.082       .  S
C83          C84   1.386       .  A
C83         C260   1.480       .  S
C84          H86   1.082       .  S
O87          C97   1.276   1_565  A
O87         Cu95   1.998   1_565  S
O88          C98   1.278       .  A
O88         Cu95   2.012       .  S
O89          C99   1.278       .  A
O89         Cu95   2.011       .  S
O90         C100   1.276   1_565  A
O90         Cu95   1.999   1_565  S
O91         C100   1.278       .  A
O91         Cu96   2.017       .  S
O92          C99   1.277       .  A
O92         Cu96   2.005       .  S
O93          C98   1.277       .  A
O93         Cu96   2.007       .  S
O94          C97   1.279       .  A
O94         Cu96   2.019       .  S
Cu95        Cu96   2.377       .  S
C100        C104   1.466   1_545  S
N101        N102   1.322       .  A
N101        C105   1.343       .  A
N101       Cu109   2.067       .  S
N102        C103   1.347   1_565  A
N102       Cu108   2.076       .  S
C103        C104   1.383   1_545  A
C103        H106   1.082       .  S
C104        C105   1.380       .  A
C105        H107   1.082       .  S
Cu108       N111   2.076       .  S
Cu109       N119   2.067       .  S
Cu110       N112   2.073       .  S
Cu110       N118   2.073       .  S
N111        N112   1.323       .  A
N111        C115   1.346       .  A
N112        C113   1.345       .  A
C113        C114   1.381       .  A
C113        H116   1.082       .  S
C114        C115   1.382       .  A
C115        H117   1.082   1_565  S
N118        N119   1.320       .  A
N118        C122   1.344       .  A
N119        C120   1.343       .  A
C120        C121   1.386       .  A
C120        H123   1.082       .  S
C121        C122   1.388       .  A
C121        C250   1.485       .  S
C122        H124   1.082       .  S
N125        N126   1.322       .  A
N125        C129   1.343       .  A
N125       Cu133   2.069       .  S
N126        C127   1.347       .  A
N126       Cu132   2.073       .  S
C127        C128   1.383       .  A
C127        H130   1.082       .  S
C128        C129   1.381       .  A
C128        C207   1.467       .  S
C129        H131   1.082       .  S
Cu132       N135   2.074       .  S
Cu133       N143   2.069       .  S
Cu134       N136   2.076       .  S
Cu134       N142   2.076       .  S
N135        N136   1.323       .  A
N135        C139   1.345       .  A
N136        C137   1.345       .  A
C137        C138   1.382       .  A
C137        H140   1.082       .  S
C138        C139   1.382       .  A
C138        C224   1.467       .  S
C139        H141   1.082       .  S
N142        N143   1.322       .  A
N142        C146   1.345       .  A
N143        C144   1.344       .  A
C144        C145   1.384       .  A
C144        H147   1.082       .  S
C145        C146   1.386       .  A
C145        C263   1.480       .  S
C146        H148   1.082       .  S
N149        N150   1.323       .  A
N149        C153   1.345       .  A
N149       Cu157   2.074       .  S
N150        C151   1.345       .  A
N150       Cu156   2.075       .  S
C151        C152   1.382       .  A
C151        H154   1.082       .  S
C152        C153   1.381       .  A
C152        C209   1.466       .  S
C153        H155   1.082       .  S
Cu156       N159   2.075       .  S
Cu157       N167   2.074       .  S
Cu158       N160   2.067       .  S
Cu158       N166   2.067       .  S
N159        N160   1.322       .  A
N159        C163   1.347       .  A
N160        C161   1.342       .  A
C161        C162   1.381       .  A
C161        H164   1.082       .  S
C162        C163   1.383       .  A
C162        C222   1.466       .  S
C163        H165   1.082       .  S
N166        N167   1.321       .  A
N166        C170   1.343       .  A
N167        C168   1.345       .  A
C168        C169   1.386       .  A
C168        H171   1.082       .  S
C169        C170   1.384       .  A
C169        C280   1.480       .  S
C170        H172   1.083       .  S
N173        N174   1.323       .  A
N173        C177   1.345       .  A
N173       Cu181   2.073       .  S
N174        C175   1.346       .  A
N174       Cu180   2.076       .  S
C175        C176   1.382       .  A
C175        H178   1.082       .  S
C176        C177   1.381       .  A
C176        C221   1.466       .  S
C177        H179   1.082       .  S
Cu180       N183   2.076       .  S
Cu181       N191   2.073       .  S
Cu182       N184   2.067       .  S
Cu182       N190   2.067       .  S
N183        N184   1.322       .  A
N183        C187   1.347       .  A
N184        C185   1.343       .  A
C185        C186   1.380       .  A
C185        H188   1.082       .  S
C186        C187   1.383       .  A
C186        C210   1.466       .  S
C187        H189   1.082       .  S
N190        N191   1.320       .  A
N190        C194   1.343       .  A
N191        C192   1.344       .  A
C192        C193   1.388       .  A
C192        H195   1.082       .  S
C193        C194   1.386       .  A
C193        C253   1.485       .  S
C194        H196   1.082       .  S
O197        C207   1.279       .  A
O197       Cu205   2.019       .  S
O198        C496   1.277       .  A
O198       Cu781   2.006   1_455  S
O199        C497   1.277       .  A
O199       Cu205   2.005       .  S
O200        C210   1.278       .  A
O200       Cu781   2.017   1_455  S
O201        C210   1.276       .  A
O201       Cu782   1.999   1_455  S
O202        C209   1.278       .  A
O202       Cu494   2.011   1_554  S
O203        C208   1.278       .  A
O203      Cu1070   2.012   1_454  S
O204        C207   1.276       .  A
O204       Cu206   1.998       .  S
Cu205       O774   2.006       .  S
Cu205       O776   2.017       .  S
Cu205      Cu206   2.377       .  S
Cu206       O777   1.999       .  S
Cu206       O490   2.011       .  S
Cu206      O1067   2.012       .  S
C208        C228   1.467       .  S
C208        O486   1.277   1_554  A
C209        O487   1.277   1_554  A
O211        C221   1.277       .  A
O211       Cu219   2.007       .  S
O212        C222   1.278       .  A
O212       Cu219   2.018       .  S
O213        C223   1.279       .  A
O213       Cu219   2.019       .  S
O214        C224   1.277       .  A
O214       Cu219   2.006       .  S
O215        C224   1.278       .  A
O215       Cu220   2.012       .  S
O216        C223   1.276       .  A
O216       Cu220   1.999       .  S
O217        C222   1.276       .  A
O217       Cu220   1.998       .  S
O218        C221   1.277       .  A
O218       Cu220   2.010       .  S
Cu219      Cu220   2.377       .  S
C223        C238   1.467       .  S
N225        N226   1.323       .  A
N225        C229   1.345       .  A
N225       Cu233   2.076       .  S
N226        C227   1.345       .  A
N226       Cu232   2.073       .  S
C227        C228   1.382       .  A
C227        H230   1.082       .  S
C228        C229   1.382       .  A
C229        H231   1.082       .  S
Cu232       N235   2.073       .  S
Cu233       N243   2.076       .  S
Cu234       N236   2.071       .  S
Cu234       N242   2.071       .  S
N235        N236   1.322       .  A
N235        C239   1.347       .  A
N236        C237   1.343       .  A
C237        C238   1.382       .  A
C237        H240   1.082       .  S
C238        C239   1.383       .  A
C239        H241   1.082       .  S
N242        N243   1.323       .  A
N242        C246   1.344       .  A
N243        C244   1.346       .  A
C244        C245   1.383       .  A
C244        H247   1.083       .  S
C245        C246   1.381       .  A
C245        C273   1.472       .  S
C246        H248   1.083       .  S
C249        C250   1.409       .  A
C249        C254   1.398       .  A
C249        F256   1.357       .  S
C250        C251   1.408       .  A
C251        C252   1.398       .  A
C251        F258   1.357       .  S
C252        C253   1.409       .  A
C252        F257   1.357       .  S
C253        C254   1.408       .  A
C254        F255   1.357       .  S
C259        C260   1.407       .  A
C259        C264   1.399       .  A
C259        F266   1.358       .  S
C260        C261   1.407       .  A
C261        C262   1.399       .  A
C261        F268   1.358       .  S
C262        C263   1.407       .  A
C262        F267   1.358       .  S
C263        C264   1.407       .  A
C264        F265   1.358       .  S
C269        C270   1.405       .  A
C269        C274   1.399       .  A
C269        F276   1.358       .  S
C270        C271   1.404       .  A
C271        C272   1.399       .  A
C271        F278   1.358       .  S
C272        C273   1.405       .  A
C272        F277   1.358       .  S
C273        C274   1.404       .  A
C274        F275   1.358       .  S
C279        C280   1.406       .  A
C279        C284   1.398       .  A
C279        F286   1.357       .  S
C280        C281   1.407       .  A
C281        C282   1.398       .  A
C281        F288   1.358       .  S
C282        C283   1.406       .  A
C282        F287   1.357       .  S
C283        C284   1.407       .  A
C284        F285   1.357       .  S
N289        N290   1.322       .  A
N289        C293   1.342       .  A
N289       Cu297   2.067       .  S
N290        C291   1.347       .  A
N290       Cu296   2.075       .  S
C291        C292   1.383       .  A
C291        H294   1.082       .  S
C292        C293   1.381       .  A
C292        C323   1.466       .  S
C293        H295   1.082       .  S
Cu296       N299   2.075       .  S
Cu297       N307   2.067       .  S
Cu298       N300   2.074       .  S
Cu298       N306   2.073       .  S
N299        N300   1.323       .  A
N299        C303   1.345       .  A
N300        C301   1.345       .  A
C301        C302   1.381       .  A
C301        H304   1.082       .  S
C302        C303   1.382       .  A
C302        C387   1.466       .  S
C303        H305   1.082       .  S
N306        N307   1.321       .  A
N306        C310   1.345       .  A
N307        C308   1.343       .  A
C308        C309   1.384       .  A
C308        H311   1.083       .  S
C309        C310   1.386       .  A
C309        C571   1.480       .  S
C310        H312   1.082       .  S
O313        C323   1.276       .  A
O314        C324   1.277       .  A
O314       Cu897   2.010   1_455  S
O315        C325   1.278   1_545  A
O315       Cu321   2.012       .  S
O316        C326   1.276       .  A
O316       Cu609   1.998   1_455  S
O317        C326   1.279       .  A
O317       Cu898   2.019   1_455  S
O318        C325   1.277       .  A
O319        C324   1.277   1_565  A
O319       Cu610   2.007   1_466  S
O320        C323   1.278       .  A
O320       Cu322   2.018       .  S
Cu321       O890   2.010       .  S
Cu321       O604   1.998   1_556  S
Cu322       O893   2.019       .  S
Cu322       O607   2.007   1_545  S
C324        C402   1.466   1_545  S
C325        C364   1.467       .  S
C326        C340   1.467       .  S
N327        N328   1.323       .  A
N327        C331   1.345       .  A
N327       Cu335   2.076       .  S
N328        C329   1.345       .  A
N328       Cu334   2.073       .  S
C329        C330   1.382       .  A
C329        H332   1.082       .  S
C330        C331   1.382       .  A
C330        C386   1.467       .  S
C331        H333   1.082       .  S
Cu334       N337   2.073       .  S
Cu335       N345   2.076       .  S
Cu336       N338   2.070       .  S
Cu336       N344   2.070       .  S
N337        N338   1.322       .  A
N337        C341   1.347       .  A
N338        C339   1.343       .  A
C339        C340   1.382       .  A
C339        H342   1.082       .  S
C340        C341   1.383       .  A
C341        H343   1.082       .  S
N344        N345   1.323       .  A
N344        C348   1.344       .  A
N345        C346   1.345       .  A
C346        C347   1.383       .  A
C346        H349   1.083       .  S
C347        C348   1.381       .  A
C347        C558   1.472       .  S
C348        H350   1.083       .  S
N351        N352   1.322       .  A
N351        C355   1.343       .  A
N351       Cu359   2.069       .  S
N352        C353   1.347   1_565  A
N352       Cu358   2.073       .  S
C353        C354   1.383   1_545  A
C353        H356   1.082       .  S
C354        C355   1.381       .  A
C354        C385   1.467   1_565  S
C355        H357   1.082       .  S
Cu358       N361   2.074       .  S
Cu359       N369   2.069       .  S
Cu360       N362   2.076       .  S
Cu360       N368   2.076       .  S
N361        N362   1.323       .  A
N361        C365   1.345       .  A
N362        C363   1.345       .  A
C363        C364   1.382       .  A
C363        H366   1.082       .  S
C364        C365   1.382       .  A
C365        H367   1.082   1_565  S
N368        N369   1.322       .  A
N368        C372   1.345       .  A
N369        C370   1.344       .  A
C370        C371   1.384       .  A
C370        H373   1.082       .  S
C371        C372   1.386       .  A
C371        C548   1.480       .  S
C372        H374   1.082       .  S
O375        C385   1.276   1_565  A
O375       Cu383   1.998   1_565  S
O376        C386   1.278       .  A
O376       Cu383   2.012       .  S
O377        C387   1.278       .  A
O377       Cu383   2.011       .  S
O378        C388   1.276   1_565  A
O378       Cu383   1.999   1_565  S
O379        C388   1.278       .  A
O379       Cu384   2.017       .  S
O380        C387   1.277       .  A
O380       Cu384   2.005       .  S
O381        C386   1.277       .  A
O381       Cu384   2.007       .  S
O382        C385   1.279       .  A
O382       Cu384   2.019       .  S
Cu383      Cu384   2.377       .  S
C388        C392   1.466   1_545  S
N389        N390   1.322       .  A
N389        C393   1.343       .  A
N389       Cu397   2.067       .  S
N390        C391   1.347   1_565  A
N390       Cu396   2.076       .  S
C391        C392   1.383   1_545  A
C391        H394   1.082       .  S
C392        C393   1.380       .  A
C393        H395   1.082       .  S
Cu396       N399   2.076       .  S
Cu397       N407   2.067       .  S
Cu398       N400   2.073       .  S
Cu398       N406   2.073       .  S
N399        N400   1.323       .  A
N399        C403   1.346       .  A
N400        C401   1.345       .  A
C401        C402   1.381       .  A
C401        H404   1.082       .  S
C402        C403   1.382       .  A
C403        H405   1.082   1_565  S
N406        N407   1.320       .  A
N406        C410   1.344       .  A
N407        C408   1.343       .  A
C408        C409   1.386       .  A
C408        H411   1.082       .  S
C409        C410   1.388       .  A
C409        C538   1.485       .  S
C410        H412   1.082       .  S
N413        N414   1.322       .  A
N413        C417   1.343       .  A
N413       Cu421   2.069       .  S
N414        C415   1.347       .  A
N414       Cu420   2.073       .  S
C415        C416   1.383       .  A
C415        H418   1.082       .  S
C416        C417   1.381       .  A
C416        C495   1.467       .  S
C417        H419   1.082       .  S
Cu420       N423   2.074       .  S
Cu421       N431   2.069       .  S
Cu422       N424   2.076       .  S
Cu422       N430   2.076       .  S
N423        N424   1.323       .  A
N423        C427   1.345       .  A
N424        C425   1.345       .  A
C425        C426   1.382       .  A
C425        H428   1.082       .  S
C426        C427   1.382       .  A
C426        C512   1.467       .  S
C427        H429   1.082       .  S
N430        N431   1.322       .  A
N430        C434   1.345       .  A
N431        C432   1.344       .  A
C432        C433   1.384       .  A
C432        H435   1.082       .  S
C433        C434   1.386       .  A
C433        C551   1.480       .  S
C434        H436   1.082       .  S
N437        N438   1.323       .  A
N437        C441   1.345       .  A
N437       Cu445   2.074       .  S
N438        C439   1.345       .  A
N438       Cu444   2.075       .  S
C439        C440   1.382       .  A
C439        H442   1.082       .  S
C440        C441   1.381       .  A
C440        C497   1.466       .  S
C441        H443   1.082       .  S
Cu444       N447   2.075       .  S
Cu445       N455   2.074       .  S
Cu446       N448   2.067       .  S
Cu446       N454   2.067       .  S
N447        N448   1.322       .  A
N447        C451   1.347       .  A
N448        C449   1.342       .  A
C449        C450   1.381       .  A
C449        H452   1.082       .  S
C450        C451   1.383       .  A
C450        C510   1.466       .  S
C451        H453   1.082       .  S
N454        N455   1.321       .  A
N454        C458   1.343       .  A
N455        C456   1.345       .  A
C456        C457   1.386       .  A
C456        H459   1.082       .  S
C457        C458   1.384       .  A
C457        C568   1.480       .  S
C458        H460   1.083       .  S
N461        N462   1.323       .  A
N461        C465   1.345       .  A
N461       Cu469   2.073       .  S
N462        C463   1.346       .  A
N462       Cu468   2.076       .  S
C463        C464   1.382       .  A
C463        H466   1.082       .  S
C464        C465   1.381       .  A
C464        C509   1.466       .  S
C465        H467   1.082       .  S
Cu468       N471   2.076       .  S
Cu469       N479   2.073       .  S
Cu470       N472   2.067       .  S
Cu470       N478   2.067       .  S
N471        N472   1.322       .  A
N471        C475   1.347       .  A
N472        C473   1.343       .  A
C473        C474   1.380       .  A
C473        H476   1.082       .  S
C474        C475   1.383       .  A
C474        C498   1.466       .  S
C475        H477   1.082       .  S
N478        N479   1.320       .  A
N478        C482   1.343       .  A
N479        C480   1.344       .  A
C480        C481   1.388       .  A
C480        H483   1.082       .  S
C481        C482   1.386       .  A
C481        C541   1.485       .  S
C482        H484   1.082       .  S
O485        C495   1.279       .  A
O485       Cu493   2.019       .  S
O486      Cu1069   2.006   1_455  S
O487       Cu493   2.005       .  S
O488        C498   1.278       .  A
O488      Cu1069   2.017   1_455  S
O489        C498   1.276       .  A
O489      Cu1070   1.999   1_455  S
O490        C497   1.278       .  A
O491        C496   1.278       .  A
O491       Cu782   2.012   1_455  S
O492        C495   1.276       .  A
O492       Cu494   1.998       .  S
Cu493      O1062   2.006       .  S
Cu493      O1064   2.017       .  S
Cu493      Cu494   2.377       .  S
Cu494      O1065   1.999       .  S
Cu494       O779   2.012   1_556  S
C496        C516   1.467       .  S
O499        C509   1.277       .  A
O499       Cu507   2.007       .  S
O500        C510   1.278       .  A
O500       Cu507   2.018       .  S
O501        C511   1.279       .  A
O501       Cu507   2.019       .  S
O502        C512   1.277       .  A
O502       Cu507   2.006       .  S
O503        C512   1.278       .  A
O503       Cu508   2.012       .  S
O504        C511   1.276       .  A
O504       Cu508   1.999       .  S
O505        C510   1.276       .  A
O505       Cu508   1.998       .  S
O506        C509   1.277       .  A
O506       Cu508   2.010       .  S
Cu507      Cu508   2.377       .  S
C511        C526   1.467       .  S
N513        N514   1.323       .  A
N513        C517   1.345       .  A
N513       Cu521   2.076       .  S
N514        C515   1.345       .  A
N514       Cu520   2.073       .  S
C515        C516   1.382       .  A
C515        H518   1.082       .  S
C516        C517   1.382       .  A
C517        H519   1.082       .  S
Cu520       N523   2.073       .  S
Cu521       N531   2.076       .  S
Cu522       N524   2.071       .  S
Cu522       N530   2.071       .  S
N523        N524   1.322       .  A
N523        C527   1.347       .  A
N524        C525   1.343       .  A
C525        C526   1.382       .  A
C525        H528   1.082       .  S
C526        C527   1.383       .  A
C527        H529   1.082       .  S
N530        N531   1.323       .  A
N530        C534   1.344       .  A
N531        C532   1.346       .  A
C532        C533   1.383       .  A
C532        H535   1.083       .  S
C533        C534   1.381       .  A
C533        C561   1.472       .  S
C534        H536   1.083       .  S
C537        C538   1.409       .  A
C537        C542   1.398       .  A
C537        F544   1.357       .  S
C538        C539   1.408       .  A
C539        C540   1.398       .  A
C539        F546   1.357       .  S
C540        C541   1.409       .  A
C540        F545   1.357       .  S
C541        C542   1.408       .  A
C542        F543   1.357       .  S
C547        C548   1.407       .  A
C547        C552   1.399       .  A
C547        F554   1.358       .  S
C548        C549   1.407       .  A
C549        C550   1.399       .  A
C549        F556   1.358       .  S
C550        C551   1.407       .  A
C550        F555   1.358       .  S
C551        C552   1.407       .  A
C552        F553   1.358       .  S
C557        C558   1.405       .  A
C557        C562   1.399       .  A
C557        F564   1.358       .  S
C558        C559   1.404       .  A
C559        C560   1.399       .  A
C559        F566   1.358       .  S
C560        C561   1.405       .  A
C560        F565   1.358       .  S
C561        C562   1.404       .  A
C562        F563   1.358       .  S
C567        C568   1.406       .  A
C567        C572   1.398       .  A
C567        F574   1.357       .  S
C568        C569   1.407       .  A
C569        C570   1.398       .  A
C569        F576   1.358       .  S
C570        C571   1.406       .  A
C570        F575   1.357       .  S
C571        C572   1.407       .  A
C572        F573   1.357       .  S
N577        N578   1.322       .  A
N577        C581   1.342       .  A
N577       Cu585   2.067       .  S
N578        C579   1.347       .  A
N578       Cu584   2.075       .  S
C579        C580   1.383       .  A
C579        H582   1.082       .  S
C580        C581   1.381       .  A
C580        C611   1.466       .  S
C581        H583   1.082       .  S
Cu584       N587   2.075       .  S
Cu585       N595   2.067       .  S
Cu586       N588   2.074       .  S
Cu586       N594   2.073       .  S
N587        N588   1.323       .  A
N587        C591   1.345       .  A
N588        C589   1.345       .  A
C589        C590   1.381       .  A
C589        H592   1.082       .  S
C590        C591   1.382       .  A
C590        C675   1.466       .  S
C591        H593   1.082       .  S
N594        N595   1.321       .  A
N594        C598   1.345       .  A
N595        C596   1.343       .  A
C596        C597   1.384       .  A
C596        H599   1.083       .  S
C597        C598   1.386       .  A
C597        C859   1.480       .  S
C598        H600   1.082       .  S
O601        C611   1.276       .  A
O601       Cu897   1.998   1_554  S
O602        C612   1.277       .  A
O603        C613   1.278   1_545  A
O603       Cu609   2.012       .  S
O604        C614   1.276       .  A
O605        C614   1.279       .  A
O606        C613   1.277       .  A
O606       Cu898   2.006   1_565  S
O607        C612   1.277   1_565  A
O608        C611   1.278       .  A
O608       Cu610   2.018       .  S
Cu609       O889   1.998       .  S
Cu609      Cu898   2.377       .  S
Cu610       O894   2.006   1_544  S
Cu610      Cu897   2.377   1_554  S
C612        C690   1.466   1_545  S
C613        C652   1.467       .  S
C614        C628   1.467       .  S
N615        N616   1.323       .  A
N615        C619   1.345       .  A
N615       Cu623   2.076       .  S
N616        C617   1.345       .  A
N616       Cu622   2.073       .  S
C617        C618   1.382       .  A
C617        H620   1.082       .  S
C618        C619   1.382       .  A
C618        C674   1.467       .  S
C619        H621   1.082       .  S
Cu622       N625   2.073       .  S
Cu623       N633   2.076       .  S
Cu624       N626   2.070       .  S
Cu624       N632   2.070       .  S
N625        N626   1.322       .  A
N625        C629   1.347       .  A
N626        C627   1.343       .  A
C627        C628   1.382       .  A
C627        H630   1.082       .  S
C628        C629   1.383       .  A
C629        H631   1.082       .  S
N632        N633   1.323       .  A
N632        C636   1.344       .  A
N633        C634   1.345       .  A
C634        C635   1.383       .  A
C634        H637   1.083       .  S
C635        C636   1.381       .  A
C635        C846   1.472       .  S
C636        H638   1.083       .  S
N639        N640   1.322       .  A
N639        C643   1.343       .  A
N639       Cu647   2.069       .  S
N640        C641   1.347   1_565  A
N640       Cu646   2.073       .  S
C641        C642   1.383   1_545  A
C641        H644   1.082       .  S
C642        C643   1.381       .  A
C642        C673   1.467   1_565  S
C643        H645   1.082       .  S
Cu646       N649   2.074       .  S
Cu647       N657   2.069       .  S
Cu648       N650   2.076       .  S
Cu648       N656   2.076       .  S
N649        N650   1.323       .  A
N649        C653   1.345       .  A
N650        C651   1.345       .  A
C651        C652   1.382       .  A
C651        H654   1.082       .  S
C652        C653   1.382       .  A
C653        H655   1.082   1_565  S
N656        N657   1.322       .  A
N656        C660   1.345       .  A
N657        C658   1.344       .  A
C658        C659   1.384       .  A
C658        H661   1.082       .  S
C659        C660   1.386       .  A
C659        C836   1.480       .  S
C660        H662   1.082       .  S
O663        C673   1.276   1_565  A
O663       Cu671   1.998   1_565  S
O664        C674   1.278       .  A
O664       Cu671   2.012       .  S
O665        C675   1.278       .  A
O665       Cu671   2.011       .  S
O666        C676   1.276   1_565  A
O666       Cu671   1.999   1_565  S
O667        C676   1.278       .  A
O667       Cu672   2.017       .  S
O668        C675   1.277       .  A
O668       Cu672   2.005       .  S
O669        C674   1.277       .  A
O669       Cu672   2.007       .  S
O670        C673   1.279       .  A
O670       Cu672   2.019       .  S
Cu671      Cu672   2.377       .  S
C676        C680   1.466   1_545  S
N677        N678   1.322       .  A
N677        C681   1.343       .  A
N677       Cu685   2.067       .  S
N678        C679   1.347   1_565  A
N678       Cu684   2.076       .  S
C679        C680   1.383   1_545  A
C679        H682   1.082       .  S
C680        C681   1.380       .  A
C681        H683   1.082       .  S
Cu684       N687   2.076       .  S
Cu685       N695   2.067       .  S
Cu686       N688   2.073       .  S
Cu686       N694   2.073       .  S
N687        N688   1.323       .  A
N687        C691   1.346       .  A
N688        C689   1.345       .  A
C689        C690   1.381       .  A
C689        H692   1.082       .  S
C690        C691   1.382       .  A
C691        H693   1.082   1_565  S
N694        N695   1.320       .  A
N694        C698   1.344       .  A
N695        C696   1.343       .  A
C696        C697   1.386       .  A
C696        H699   1.082       .  S
C697        C698   1.388       .  A
C697        C826   1.485       .  S
C698        H700   1.082       .  S
N701        N702   1.322       .  A
N701        C705   1.343       .  A
N701       Cu709   2.069       .  S
N702        C703   1.347       .  A
N702       Cu708   2.073       .  S
C703        C704   1.383       .  A
C703        H706   1.082       .  S
C704        C705   1.381       .  A
C704        C783   1.467       .  S
C705        H707   1.082       .  S
Cu708       N711   2.074       .  S
Cu709       N719   2.069       .  S
Cu710       N712   2.076       .  S
Cu710       N718   2.076       .  S
N711        N712   1.323       .  A
N711        C715   1.345       .  A
N712        C713   1.345       .  A
C713        C714   1.382       .  A
C713        H716   1.082       .  S
C714        C715   1.382       .  A
C714        C800   1.467       .  S
C715        H717   1.082       .  S
N718        N719   1.322       .  A
N718        C722   1.345       .  A
N719        C720   1.344       .  A
C720        C721   1.384       .  A
C720        H723   1.082       .  S
C721        C722   1.386       .  A
C721        C839   1.480       .  S
C722        H724   1.082       .  S
N725        N726   1.323       .  A
N725        C729   1.345       .  A
N725       Cu733   2.074       .  S
N726        C727   1.345       .  A
N726       Cu732   2.075       .  S
C727        C728   1.382       .  A
C727        H730   1.082       .  S
C728        C729   1.381       .  A
C728        C785   1.466       .  S
C729        H731   1.082       .  S
Cu732       N735   2.075       .  S
Cu733       N743   2.074       .  S
Cu734       N736   2.067       .  S
Cu734       N742   2.067       .  S
N735        N736   1.322       .  A
N735        C739   1.347       .  A
N736        C737   1.342       .  A
C737        C738   1.381       .  A
C737        H740   1.082       .  S
C738        C739   1.383       .  A
C738        C798   1.466       .  S
C739        H741   1.082       .  S
N742        N743   1.321       .  A
N742        C746   1.343       .  A
N743        C744   1.345       .  A
C744        C745   1.386       .  A
C744        H747   1.082       .  S
C745        C746   1.384       .  A
C745        C856   1.480       .  S
C746        H748   1.083       .  S
N749        N750   1.323       .  A
N749        C753   1.345       .  A
N749       Cu757   2.073       .  S
N750        C751   1.346       .  A
N750       Cu756   2.076       .  S
C751        C752   1.382       .  A
C751        H754   1.082       .  S
C752        C753   1.381       .  A
C752        C797   1.466       .  S
C753        H755   1.082       .  S
Cu756       N759   2.076       .  S
Cu757       N767   2.073       .  S
Cu758       N760   2.067       .  S
Cu758       N766   2.067       .  S
N759        N760   1.322       .  A
N759        C763   1.347       .  A
N760        C761   1.343       .  A
C761        C762   1.380       .  A
C761        H764   1.082       .  S
C762        C763   1.383       .  A
C762        C786   1.466       .  S
C763        H765   1.082       .  S
N766        N767   1.320       .  A
N766        C770   1.343       .  A
N767        C768   1.344       .  A
C768        C769   1.388       .  A
C768        H771   1.082       .  S
C769        C770   1.386       .  A
C769        C829   1.485       .  S
C770        H772   1.082       .  S
O773        C783   1.279       .  A
O773       Cu781   2.019       .  S
O774       C1072   1.277       .  A
O775       C1073   1.277       .  A
O775       Cu781   2.005       .  S
O776        C786   1.278       .  A
O777        C786   1.276       .  A
O778        C785   1.278       .  A
O778      Cu1070   2.011   1_554  S
O779        C784   1.278       .  A
O780        C783   1.276       .  A
O780       Cu782   1.998       .  S
Cu781      Cu782   2.377       .  S
Cu782      O1066   2.011       .  S
C784        C804   1.467       .  S
C784       O1062   1.277   1_554  A
C785       O1063   1.277   1_554  A
O787        C797   1.277       .  A
O787       Cu795   2.007       .  S
O788        C798   1.278       .  A
O788       Cu795   2.018       .  S
O789        C799   1.279       .  A
O789       Cu795   2.019       .  S
O790        C800   1.277       .  A
O790       Cu795   2.006       .  S
O791        C800   1.278       .  A
O791       Cu796   2.012       .  S
O792        C799   1.276       .  A
O792       Cu796   1.999       .  S
O793        C798   1.276       .  A
O793       Cu796   1.998       .  S
O794        C797   1.277       .  A
O794       Cu796   2.010       .  S
Cu795      Cu796   2.377       .  S
C799        C814   1.467       .  S
N801        N802   1.323       .  A
N801        C805   1.345       .  A
N801       Cu809   2.076       .  S
N802        C803   1.345       .  A
N802       Cu808   2.073       .  S
C803        C804   1.382       .  A
C803        H806   1.082       .  S
C804        C805   1.382       .  A
C805        H807   1.082       .  S
Cu808       N811   2.073       .  S
Cu809       N819   2.076       .  S
Cu810       N812   2.071       .  S
Cu810       N818   2.071       .  S
N811        N812   1.322       .  A
N811        C815   1.347       .  A
N812        C813   1.343       .  A
C813        C814   1.382       .  A
C813        H816   1.082       .  S
C814        C815   1.383       .  A
C815        H817   1.082       .  S
N818        N819   1.323       .  A
N818        C822   1.344       .  A
N819        C820   1.346       .  A
C820        C821   1.383       .  A
C820        H823   1.083       .  S
C821        C822   1.381       .  A
C821        C849   1.472       .  S
C822        H824   1.083       .  S
C825        C826   1.409       .  A
C825        C830   1.398       .  A
C825        F832   1.357       .  S
C826        C827   1.408       .  A
C827        C828   1.398       .  A
C827        F834   1.357       .  S
C828        C829   1.409       .  A
C828        F833   1.357       .  S
C829        C830   1.408       .  A
C830        F831   1.357       .  S
C835        C836   1.407       .  A
C835        C840   1.399       .  A
C835        F842   1.358       .  S
C836        C837   1.407       .  A
C837        C838   1.399       .  A
C837        F844   1.358       .  S
C838        C839   1.407       .  A
C838        F843   1.358       .  S
C839        C840   1.407       .  A
C840        F841   1.358       .  S
C845        C846   1.405       .  A
C845        C850   1.399       .  A
C845        F852   1.358       .  S
C846        C847   1.404       .  A
C847        C848   1.399       .  A
C847        F854   1.358       .  S
C848        C849   1.405       .  A
C848        F853   1.358       .  S
C849        C850   1.404       .  A
C850        F851   1.358       .  S
C855        C856   1.406       .  A
C855        C860   1.398       .  A
C855        F862   1.357       .  S
C856        C857   1.407       .  A
C857        C858   1.398       .  A
C857        F864   1.358       .  S
C858        C859   1.406       .  A
C858        F863   1.357       .  S
C859        C860   1.407       .  A
C860        F861   1.357       .  S
N865        N866   1.322       .  A
N865        C869   1.342       .  A
N865       Cu873   2.067       .  S
N866        C867   1.347       .  A
N866       Cu872   2.075       .  S
C867        C868   1.383       .  A
C867        H870   1.082       .  S
C868        C869   1.381       .  A
C868        C899   1.466       .  S
C869        H871   1.082       .  S
Cu872       N875   2.075       .  S
Cu873       N883   2.067       .  S
Cu874       N876   2.074       .  S
Cu874       N882   2.073       .  S
N875        N876   1.323       .  A
N875        C879   1.345       .  A
N876        C877   1.345       .  A
C877        C878   1.381       .  A
C877        H880   1.082       .  S
C878        C879   1.382       .  A
C878        C963   1.466       .  S
C879        H881   1.082       .  S
N882        N883   1.321       .  A
N882        C886   1.345       .  A
N883        C884   1.343       .  A
C884        C885   1.384       .  A
C884        H887   1.083       .  S
C885        C886   1.386       .  A
C885       C1147   1.480       .  S
C886        H888   1.082       .  S
O889        C899   1.276       .  A
O890        C900   1.277       .  A
O891        C901   1.278   1_545  A
O891       Cu897   2.012       .  S
O892        C902   1.276       .  A
O893        C902   1.279       .  A
O894        C901   1.277       .  A
O895        C900   1.277   1_565  A
O896        C899   1.278       .  A
O896       Cu898   2.018       .  S
C900        C978   1.466   1_545  S
C901        C940   1.467       .  S
C902        C916   1.467       .  S
N903        N904   1.323       .  A
N903        C907   1.345       .  A
N903       Cu911   2.076       .  S
N904        C905   1.345       .  A
N904       Cu910   2.073       .  S
C905        C906   1.382       .  A
C905        H908   1.082       .  S
C906        C907   1.382       .  A
C906        C962   1.467       .  S
C907        H909   1.082       .  S
Cu910       N913   2.073       .  S
Cu911       N921   2.076       .  S
Cu912       N914   2.070       .  S
Cu912       N920   2.070       .  S
N913        N914   1.322       .  A
N913        C917   1.347       .  A
N914        C915   1.343       .  A
C915        C916   1.382       .  A
C915        H918   1.082       .  S
C916        C917   1.383       .  A
C917        H919   1.082       .  S
N920        N921   1.323       .  A
N920        C924   1.344       .  A
N921        C922   1.345       .  A
C922        C923   1.383       .  A
C922        H925   1.083       .  S
C923        C924   1.381       .  A
C923       C1134   1.472       .  S
C924        H926   1.083       .  S
N927        N928   1.322       .  A
N927        C931   1.343       .  A
N927       Cu935   2.069       .  S
N928        C929   1.347   1_565  A
N928       Cu934   2.073       .  S
C929        C930   1.383   1_545  A
C929        H932   1.082       .  S
C930        C931   1.381       .  A
C930        C961   1.467   1_565  S
C931        H933   1.082       .  S
Cu934       N937   2.074       .  S
Cu935       N945   2.069       .  S
Cu936       N938   2.076       .  S
Cu936       N944   2.076       .  S
N937        N938   1.323       .  A
N937        C941   1.345       .  A
N938        C939   1.345       .  A
C939        C940   1.382       .  A
C939        H942   1.082       .  S
C940        C941   1.382       .  A
C941        H943   1.082   1_565  S
N944        N945   1.322       .  A
N944        C948   1.345       .  A
N945        C946   1.344       .  A
C946        C947   1.384       .  A
C946        H949   1.082       .  S
C947        C948   1.386       .  A
C947       C1124   1.480       .  S
C948        H950   1.082       .  S
O951        C961   1.276   1_565  A
O951       Cu959   1.998   1_565  S
O952        C962   1.278       .  A
O952       Cu959   2.012       .  S
O953        C963   1.278       .  A
O953       Cu959   2.011       .  S
O954        C964   1.276   1_565  A
O954       Cu959   1.999   1_565  S
O955        C964   1.278       .  A
O955       Cu960   2.017       .  S
O956        C963   1.277       .  A
O956       Cu960   2.005       .  S
O957        C962   1.277       .  A
O957       Cu960   2.007       .  S
O958        C961   1.279       .  A
O958       Cu960   2.019       .  S
Cu959      Cu960   2.377       .  S
C964        C968   1.466   1_545  S
N965        N966   1.322       .  A
N965        C969   1.343       .  A
N965       Cu973   2.067       .  S
N966        C967   1.347   1_565  A
N966       Cu972   2.076       .  S
C967        C968   1.383   1_545  A
C967        H970   1.082       .  S
C968        C969   1.380       .  A
C969        H971   1.082       .  S
Cu972       N975   2.076       .  S
Cu973       N983   2.067       .  S
Cu974       N976   2.073       .  S
Cu974       N982   2.073       .  S
N975        N976   1.323       .  A
N975        C979   1.346       .  A
N976        C977   1.345       .  A
C977        C978   1.381       .  A
C977        H980   1.082       .  S
C978        C979   1.382       .  A
C979        H981   1.082   1_565  S
N982        N983   1.320       .  A
N982        C986   1.344       .  A
N983        C984   1.343       .  A
C984        C985   1.386       .  A
C984        H987   1.082       .  S
C985        C986   1.388       .  A
C985       C1114   1.485       .  S
C986        H988   1.082       .  S
N989        N990   1.322       .  A
N989        C993   1.343       .  A
N989       Cu997   2.069       .  S
N990        C991   1.347       .  A
N990       Cu996   2.073       .  S
C991        C992   1.383       .  A
C991        H994   1.082       .  S
C992        C993   1.381       .  A
C992       C1071   1.467       .  S
C993        H995   1.082       .  S
Cu996       N999   2.074       .  S
Cu997      N1007   2.069       .  S
Cu998      N1000   2.076       .  S
Cu998      N1006   2.076       .  S
N999       N1000   1.323       .  A
N999       C1003   1.345       .  A
N1000      C1001   1.345       .  A
C1001      C1002   1.382       .  A
C1001      H1004   1.082       .  S
C1002      C1003   1.382       .  A
C1002      C1088   1.467       .  S
C1003      H1005   1.082       .  S
N1006      N1007   1.322       .  A
N1006      C1010   1.345       .  A
N1007      C1008   1.344       .  A
C1008      C1009   1.384       .  A
C1008      H1011   1.082       .  S
C1009      C1010   1.386       .  A
C1009      C1127   1.480       .  S
C1010      H1012   1.082       .  S
N1013      N1014   1.323       .  A
N1013      C1017   1.345       .  A
N1013     Cu1021   2.074       .  S
N1014      C1015   1.345       .  A
N1014     Cu1020   2.075       .  S
C1015      C1016   1.382       .  A
C1015      H1018   1.082       .  S
C1016      C1017   1.381       .  A
C1016      C1073   1.466       .  S
C1017      H1019   1.082       .  S
Cu1020     N1023   2.075       .  S
Cu1021     N1031   2.074       .  S
Cu1022     N1024   2.067       .  S
Cu1022     N1030   2.067       .  S
N1023      N1024   1.322       .  A
N1023      C1027   1.347       .  A
N1024      C1025   1.342       .  A
C1025      C1026   1.381       .  A
C1025      H1028   1.082       .  S
C1026      C1027   1.383       .  A
C1026      C1086   1.466       .  S
C1027      H1029   1.082       .  S
N1030      N1031   1.321       .  A
N1030      C1034   1.343       .  A
N1031      C1032   1.345       .  A
C1032      C1033   1.386       .  A
C1032      H1035   1.082       .  S
C1033      C1034   1.384       .  A
C1033      C1144   1.480       .  S
C1034      H1036   1.083       .  S
N1037      N1038   1.323       .  A
N1037      C1041   1.345       .  A
N1037     Cu1045   2.073       .  S
N1038      C1039   1.346       .  A
N1038     Cu1044   2.076       .  S
C1039      C1040   1.382       .  A
C1039      H1042   1.082       .  S
C1040      C1041   1.381       .  A
C1040      C1085   1.466       .  S
C1041      H1043   1.082       .  S
Cu1044     N1047   2.076       .  S
Cu1045     N1055   2.073       .  S
Cu1046     N1048   2.067       .  S
Cu1046     N1054   2.067       .  S
N1047      N1048   1.322       .  A
N1047      C1051   1.347       .  A
N1048      C1049   1.343       .  A
C1049      C1050   1.380       .  A
C1049      H1052   1.082       .  S
C1050      C1051   1.383       .  A
C1050      C1074   1.466       .  S
C1051      H1053   1.082       .  S
N1054      N1055   1.320       .  A
N1054      C1058   1.343       .  A
N1055      C1056   1.344       .  A
C1056      C1057   1.388       .  A
C1056      H1059   1.082       .  S
C1057      C1058   1.386       .  A
C1057      C1117   1.485       .  S
C1058      H1060   1.082       .  S
O1061      C1071   1.279       .  A
O1061     Cu1069   2.019       .  S
O1063     Cu1069   2.005       .  S
O1064      C1074   1.278       .  A
O1065      C1074   1.276       .  A
O1066      C1073   1.278       .  A
O1067      C1072   1.278       .  A
O1068      C1071   1.276       .  A
O1068     Cu1070   1.998       .  S
Cu1069    Cu1070   2.377       .  S
C1072      C1092   1.467       .  S
O1075      C1085   1.277       .  A
O1075     Cu1083   2.007       .  S
O1076      C1086   1.278       .  A
O1076     Cu1083   2.018       .  S
O1077      C1087   1.279       .  A
O1077     Cu1083   2.019       .  S
O1078      C1088   1.277       .  A
O1078     Cu1083   2.006       .  S
O1079      C1088   1.278       .  A
O1079     Cu1084   2.012       .  S
O1080      C1087   1.276       .  A
O1080     Cu1084   1.999       .  S
O1081      C1086   1.276       .  A
O1081     Cu1084   1.998       .  S
O1082      C1085   1.277       .  A
O1082     Cu1084   2.010       .  S
Cu1083    Cu1084   2.377       .  S
C1087      C1102   1.467       .  S
N1089      N1090   1.323       .  A
N1089      C1093   1.345       .  A
N1089     Cu1097   2.076       .  S
N1090      C1091   1.345       .  A
N1090     Cu1096   2.073       .  S
C1091      C1092   1.382       .  A
C1091      H1094   1.082       .  S
C1092      C1093   1.382       .  A
C1093      H1095   1.082       .  S
Cu1096     N1099   2.073       .  S
Cu1097     N1107   2.076       .  S
Cu1098     N1100   2.071       .  S
Cu1098     N1106   2.071       .  S
N1099      N1100   1.322       .  A
N1099      C1103   1.347       .  A
N1100      C1101   1.343       .  A
C1101      C1102   1.382       .  A
C1101      H1104   1.082       .  S
C1102      C1103   1.383       .  A
C1103      H1105   1.082       .  S
N1106      N1107   1.323       .  A
N1106      C1110   1.344       .  A
N1107      C1108   1.346       .  A
C1108      C1109   1.383       .  A
C1108      H1111   1.083       .  S
C1109      C1110   1.381       .  A
C1109      C1137   1.472       .  S
C1110      H1112   1.083       .  S
C1113      C1114   1.409       .  A
C1113      C1118   1.398       .  A
C1113      F1120   1.357       .  S
C1114      C1115   1.408       .  A
C1115      C1116   1.398       .  A
C1115      F1122   1.357       .  S
C1116      C1117   1.409       .  A
C1116      F1121   1.357       .  S
C1117      C1118   1.408       .  A
C1118      F1119   1.357       .  S
C1123      C1124   1.407       .  A
C1123      C1128   1.399       .  A
C1123      F1130   1.358       .  S
C1124      C1125   1.407       .  A
C1125      C1126   1.399       .  A
C1125      F1132   1.358       .  S
C1126      C1127   1.407       .  A
C1126      F1131   1.358       .  S
C1127      C1128   1.407       .  A
C1128      F1129   1.358       .  S
C1133      C1134   1.405       .  A
C1133      C1138   1.399       .  A
C1133      F1140   1.358       .  S
C1134      C1135   1.404       .  A
C1135      C1136   1.399       .  A
C1135      F1142   1.358       .  S
C1136      C1137   1.405       .  A
C1136      F1141   1.358       .  S
C1137      C1138   1.404       .  A
C1138      F1139   1.358       .  S
C1143      C1144   1.406       .  A
C1143      C1148   1.398       .  A
C1143      F1150   1.357       .  S
C1144      C1145   1.407       .  A
C1145      C1146   1.398       .  A
C1145      F1152   1.358       .  S
C1146      C1147   1.406       .  A
C1146      F1151   1.357       .  S
C1147      C1148   1.407       .  A
C1148      F1149   1.357       .  S
