geometry optimzed in LAMMPS
_audit_creation_date              2020-11-30 
_audit_creation_method            'lammps2cif' 
_symmetry_space_group_name_H-M    'P1' 
_symmetry_Int_Tables_number       1 
_symmetry_cell_setting            triclinic 
loop_ 
_symmetry_equiv_pos_as_xyz 
  x,y,z 
_cell_length_a                    47.36931953 
_cell_length_b                    25.00615195508099 
_cell_length_c                    25.664905706629263 
_cell_angle_alpha                 89.97768973743004 
_cell_angle_beta                  89.68186406063224 
_cell_angle_gamma                 88.58474403208075 
loop_ 
_atom_site_label 
_atom_site_type_symbol 
_atom_site_fract_x 
_atom_site_fract_y 
_atom_site_fract_z 
_atom_site_charge 
N1          N  0.16503588  0.42478294  0.04929548    -0.07200
N2          N  0.18582409  0.39564852  0.07075748    -0.59300
N3          N  0.14299138  0.39754489  0.93201631    -0.06800
N4          N  0.14787484  0.35499849  0.90296360    -0.61400
N5          N  0.16535909  0.42805085  0.93285456    -0.06400
N6          N  0.18619139  0.40475714  0.90572626    -0.59300
N7          N  0.14168076  0.39711652  0.05110212    -0.06100
N8          N  0.14569226  0.35201409  0.07625727    -0.61800
C9          C  0.17310182  0.35075080  0.08856837     0.95000
C10         C  0.17462194  0.35984702  0.88613094     0.94800
N11         N  0.05749125  0.44452288  0.93178017    -0.07300
N12         N  0.04421061  0.44750088  0.88674827    -0.59900
N13         N  0.07714022  0.40597408  0.05385364    -0.05500
N14         N  0.07768667  0.38137351  0.09955030    -0.61100
N15         N  0.05790097  0.44457333  0.05408302    -0.07400
N16         N  0.04485019  0.44656525  0.09971647    -0.60100
N17         N  0.07721365  0.40684593  0.93014957    -0.05100
N18         N  0.07773785  0.38365962  0.88384503    -0.61200
Mn19       Mn  0.10942793  0.40108391  0.99155276     1.18400
C20         C  0.05687487  0.40914546  0.85696609     0.97100
C21         C  0.05725772  0.40671934  0.12804957     0.97800
N22         N  0.16922209  0.56139688  0.93446015    -0.07400
N23         N  0.19171629  0.58646225  0.91626995    -0.63700
N24         N  0.14718969  0.59587360  0.04855803    -0.06200
N25         N  0.15281745  0.63794264  0.07676965    -0.64400
N26         N  0.16805974  0.56001065  0.05053574    -0.06900
N27         N  0.18897894  0.57919406  0.07895240    -0.64000
N28         N  0.14685465  0.59348310  0.92976237    -0.05800
N29         N  0.15331431  0.63770803  0.90553347    -0.64700
Mn30       Mn  0.16796180  0.49323863  0.99205741     1.10700
C31         C  0.18117647  0.63366896  0.89703648     0.98300
C32         C  0.17861817  0.62750449  0.09605305     0.98400
N33         N  0.06253253  0.56729110  0.05433529    -0.06900
N34         N  0.05286798  0.56459574  0.10271431    -0.62300
N35         N  0.08222716  0.59911436  0.92804039    -0.06200
N36         N  0.08567249  0.61868218  0.88060336    -0.59000
N37         N  0.06148570  0.56525514  0.92882357    -0.07500
N38         N  0.05073471  0.56083173  0.88151019    -0.61900
N39         N  0.08294015  0.60182473  0.05187358    -0.06500
N40         N  0.08726638  0.62348636  0.09807136    -0.59000
Mn41       Mn  0.05834401  0.50610133  0.99258509     1.20200
Mn42       Mn  0.11424487  0.59827734  0.98930849     1.10100
Cl43       Cl  0.11281955  0.49949857  0.99149175    -0.87000
C44         C  0.06815677  0.60048864  0.12937069     0.95300
C45         C  0.06564518  0.59510861  0.85201131     0.95100
N46         N  0.45051238  0.42224122  0.05728129    -0.07200
N47         N  0.46119354  0.42622223  0.10463229    -0.59300
N48         N  0.43014781  0.38615594  0.93457134    -0.06800
N49         N  0.42675360  0.36343365  0.88876889    -0.61400
N50         N  0.45046905  0.42080852  0.93281780    -0.06400
N51         N  0.46132610  0.42207932  0.88512652    -0.59300
N52         N  0.43022886  0.38742176  0.05733851    -0.06100
N53         N  0.42683159  0.36717235  0.10443354    -0.61800
C54         C  0.44659812  0.39088955  0.13345666     0.95000
C55         C  0.44659614  0.38527365  0.85836659     0.94800
N56         N  0.34339575  0.42155458  0.93782162    -0.07300
N57         N  0.32207194  0.39800205  0.91420057    -0.59900
N58         N  0.36566279  0.38807876  0.05467941    -0.05500
N59         N  0.36108466  0.34450910  0.08137128    -0.61100
N60         N  0.34314604  0.42019411  0.05450702    -0.07400
N61         N  0.32228076  0.39629381  0.08000483    -0.60100
N62         N  0.36578775  0.38908405  0.93629609    -0.05100
N63         N  0.36059383  0.34573733  0.90964328    -0.61200
Mn64       Mn  0.39846527  0.38730132  0.99577121     1.18400
C65         C  0.33347807  0.35115043  0.89553400     0.97100
C66         C  0.33434780  0.34955154  0.09789607     0.97800
N67         N  0.45144007  0.54352098  0.93263757    -0.07400
N68         N  0.46372025  0.54048096  0.88623418    -0.63700
N69         N  0.43060903  0.58105133  0.05649996    -0.06200
N70         N  0.42771638  0.60311337  0.10310621    -0.64400
N71         N  0.45090407  0.54440494  0.05654164    -0.06900
N72         N  0.46231115  0.54128974  0.10339752    -0.64000
N73         N  0.43128701  0.58049338  0.93248834    -0.05800
N74         N  0.42949302  0.60317123  0.88598564    -0.64700
Mn75       Mn  0.45232862  0.48262414  0.99470602     1.10700
C76         C  0.45022275  0.57865226  0.85767834     0.98300
C77         C  0.44791966  0.57860339  0.13198590     0.98400
N78         N  0.34384237  0.55598645  0.05480508    -0.06900
N79         N  0.32284988  0.58065214  0.08061941    -0.62300
N80         N  0.36616929  0.58630375  0.93667498    -0.06200
N81         N  0.36166140  0.63014576  0.90989261    -0.59000
N82         N  0.34341024  0.55689993  0.93808999    -0.07500
N83         N  0.32248592  0.58302481  0.91343981    -0.61900
N84         N  0.36608999  0.58680416  0.05488648    -0.06500
N85         N  0.36112410  0.63032960  0.08237981    -0.59000
Mn86       Mn  0.34213601  0.48874682  0.99638950     1.20200
Mn87       Mn  0.39903816  0.58424483  0.99499384     1.10100
Cl88       Cl  0.39735893  0.48586679  0.99544879    -0.87000
C89         C  0.33438959  0.62632022  0.09903900     0.95300
C90         C  0.33461862  0.62847148  0.89518731     0.95100
N91         N  0.20923244  0.05988202  0.30231495    -0.07200
N92         N  0.19633851  0.09116730  0.33739104    -0.59300
N93         N  0.19405824  0.93689364  0.26883068    -0.06800
N94         N  0.16975235  0.91517706  0.27903870    -0.61400
N95         N  0.20932517  0.94102255  0.31143549    -0.06400
N96         N  0.19453296  0.92321399  0.35182306    -0.59300
N97         N  0.19322321  0.05668139  0.26058092    -0.06100
N98         N  0.17022464  0.08650468  0.26548978    -0.61800
C99         C  0.17240903  0.10846743  0.31280229     0.95000
C100        C  0.16993845  0.90678169  0.33052271     0.94800
N101        N  0.22126523  0.92178073  0.11581360    -0.07300
N102        N  0.22526545  0.87103925  0.10144817    -0.59900
N103        N  0.19786368  0.05098429  0.14260866    -0.05500
N104        N  0.18433771  0.09771480  0.14358913    -0.61100
N105        N  0.21804254  0.05056233  0.10745577    -0.07400
N106        N  0.21847220  0.09742557  0.08343100    -0.60100
N107        N  0.20081022  0.92498696  0.15051503    -0.05100
N108        N  0.19059081  0.87734123  0.15975353    -0.61200
Mn109      Mn  0.19632351  0.99216364  0.20443463     1.18400
C110        C  0.20581546  0.84356330  0.12915896     0.97100
C111        C  0.19701726  0.12608045  0.10599991     0.97800
N112        N  0.27994742  0.93834281  0.31764852    -0.07400
N113        N  0.28984311  0.91267517  0.35934136    -0.63700
N114        N  0.29850520  0.05430453  0.27202416    -0.06200
N115        N  0.32036109  0.08382884  0.28110629    -0.64400
N116        N  0.27977912  0.05811248  0.31013671    -0.06900
N117        N  0.28959087  0.08973299  0.34721275    -0.64000
N118        N  0.29879924  0.93490642  0.27954833    -0.05800
N119        N  0.32106252  0.90652763  0.29388731    -0.64700
Mn120      Mn  0.24459095  0.99950278  0.31239187     1.10700
C121        C  0.31528280  0.89243625  0.34305528     0.98300
C122        C  0.31465537  0.10617473  0.32734206     0.98400
N123        N  0.28290150  0.05395332  0.11611867    -0.06900
N124        N  0.28147091  0.10307279  0.09618205    -0.62300
N125        N  0.30224364  0.92519308  0.15873589    -0.06200
N126        N  0.31436640  0.87729945  0.16443246    -0.59000
N127        N  0.28516958  0.92558030  0.11872647    -0.07500
N128        N  0.28546262  0.87797814  0.09639883    -0.61900
N129        N  0.30145158  0.05220816  0.15396886    -0.06500
N130        N  0.31301400  0.09925696  0.15993691    -0.59000
Mn131      Mn  0.25190537  0.98820683  0.11120919     1.20200
Mn132      Mn  0.30069742  0.99101809  0.21515361     1.10100
Cl133      Cl  0.24839405  0.99270252  0.21142123    -0.87000
C134        C  0.30059178  0.13110711  0.12386901     0.95300
C135        C  0.30387556  0.84807243  0.12487817     0.95100
N136        N  0.22083771  0.06066060  0.88337553    -0.07200
N137        N  0.22436710  0.11043717  0.89939657    -0.59300
N138        N  0.20034970  0.93245327  0.85440180    -0.06800
N139        N  0.18937968  0.88444158  0.85207200    -0.61400
N140        N  0.22045163  0.93316641  0.88934620    -0.06400
N141        N  0.22327256  0.88571698  0.91183407    -0.59300
N142        N  0.20042377  0.05964079  0.84895229    -0.06100
N143        N  0.18975588  0.10823840  0.84142094    -0.61800
C144        C  0.20474835  0.13987761  0.87304875     0.95000
C145        C  0.20356595  0.85588281  0.88855718     0.94800
N146        N  0.20909655  0.92835115  0.69318435    -0.07300
N147        N  0.19534524  0.90043201  0.65764541    -0.59900
N148        N  0.19286697  0.05050778  0.72914927    -0.05500
N149        N  0.16851745  0.07475102  0.71966646    -0.61100
N150        N  0.20859394  0.04755661  0.68645807    -0.07400
N151        N  0.19419549  0.06911648  0.64692741    -0.60100
N152        N  0.19377537  0.93085435  0.73625736    -0.05100
N153        N  0.17057204  0.90385422  0.73166471    -0.61200
Mn154      Mn  0.19655169  0.99363929  0.79350574     1.18400
C155        C  0.17169272  0.88430031  0.68320852     0.97100
C156        C  0.16920806  0.08601584  0.66863876     0.97800
N157        N  0.28456183  0.92798732  0.87808824    -0.07400
N158        N  0.28415306  0.87845247  0.89710395    -0.63700
N159        N  0.30158839  0.05621218  0.83571223    -0.06200
N160        N  0.31373589  0.10291427  0.83007317    -0.64400
N161        N  0.28497590  0.05645384  0.87669944    -0.06900
N162        N  0.28569151  0.10346123  0.90016583    -0.64000
N163        N  0.30261885  0.92994337  0.83927775    -0.05800
N164        N  0.31491907  0.88283621  0.83174380    -0.64700
Mn165      Mn  0.25271265  0.99451221  0.88505273     1.10700
C166        C  0.30365295  0.85074763  0.86796151     0.98300
C167        C  0.30391832  0.13193471  0.87098479     0.98400
N168        N  0.28025989  0.04495778  0.67702059    -0.06900
N169        N  0.29253477  0.06434335  0.63437227    -0.62300
N170        N  0.29874284  0.92832106  0.72205901    -0.06200
N171        N  0.32053534  0.89631262  0.71360070    -0.59000
N172        N  0.28009857  0.92526383  0.68431171    -0.07500
N173        N  0.29001645  0.89172394  0.64789859    -0.61900
N174        N  0.29793497  0.04869375  0.71645538    -0.06500
N175        N  0.32123046  0.07193607  0.70226378    -0.59000
Mn176      Mn  0.24450718  0.98652047  0.68311151     1.20200
Mn177      Mn  0.30040786  0.99141461  0.77918078     1.10100
Cl178      Cl  0.24844812  0.99176587  0.78447379    -0.87000
C179        C  0.31809562  0.08108055  0.65132640     0.95300
C180        C  0.31504548  0.87326358  0.66795270     0.95100
N181        N  0.02878458  0.21166656  0.42862352    -0.07200
N182        N  0.04171702  0.17290332  0.40139823    -0.59300
N183        N  0.04534002  0.24785151  0.54732822    -0.06800
N184        N  0.06933691  0.23594022  0.57030513    -0.61400
N185        N  0.02919038  0.20558559  0.54460479    -0.06400
N186        N  0.04313856  0.16360175  0.56477899    -0.59300
N187        N  0.04526615  0.25342129  0.43029704    -0.06100
N188        N  0.06843386  0.24500074  0.40311732    -0.61800
C189        C  0.06619402  0.19518683  0.38499731     0.95000
C190        C  0.06819585  0.18365004  0.58069212     0.94800
N191        N  0.02283051  0.40974146  0.55572228    -0.07300
N192        N  0.02072910  0.43015730  0.60322478    -0.59900
N193        N  0.04310643  0.37491456  0.43162507    -0.05500
N194        N  0.05584286  0.37069879  0.38582602    -0.61100
N195        N  0.02324302  0.41236541  0.43068360    -0.07400
N196        N  0.02223316  0.43410466  0.38352336    -0.60100
N197        N  0.04207285  0.37114115  0.55486927    -0.05100
N198        N  0.05333410  0.36470692  0.60146089    -0.61200
Mn199      Mn  0.04409511  0.31280097  0.49138412     1.18400
C200        C  0.03993945  0.40184194  0.63157370     0.97100
C201        C  0.04285600  0.40788417  0.35564216     0.97800
N202        N  0.45727206  0.20404390  0.54490145    -0.07400
N203        N  0.44369418  0.16087033  0.56070398    -0.63700
N204        N  0.43997673  0.25325295  0.43203044    -0.06200
N205        N  0.41643871  0.24491562  0.40727319    -0.64400
N206        N  0.45711919  0.21089951  0.43007927    -0.06900
N207        N  0.44411266  0.17172236  0.40540847    -0.64000
N208        N  0.44002947  0.24625526  0.54896477    -0.05800
N209        N  0.41569142  0.23288917  0.56913983    -0.64700
Mn210      Mn  0.99323212  0.20619968  0.48684229     1.10700
C211        C  0.41771395  0.17990179  0.57573761     0.98300
C212        C  0.41888045  0.19442363  0.39066771     0.98400
N213        N  0.45783553  0.41167194  0.43319079    -0.06900
N214        N  0.45943159  0.43181475  0.38565347    -0.62300
N215        N  0.44016983  0.36951718  0.55664027    -0.06200
N216        N  0.42944301  0.36137858  0.60348846    -0.59000
N217        N  0.45875556  0.40760292  0.55773014    -0.07500
N218        N  0.46113785  0.42547781  0.60600846    -0.61900
N219        N  0.43905056  0.37401196  0.43425357    -0.06500
N220        N  0.42764957  0.36800045  0.38787803    -0.59000
Mn221      Mn  0.49055986  0.41362092  0.49409478     1.20200
Mn222      Mn  0.43975190  0.31187581  0.49337832     1.10100
Cl223      Cl  0.49191676  0.31051334  0.49158339    -0.87000
C224        C  0.44015319  0.40478352  0.35792899     0.95300
C225        C  0.44237083  0.39703312  0.63391308     0.95100
N226        N  0.03995069  0.59128825  0.42858093    -0.07200
N227        N  0.04063131  0.57082507  0.38082593    -0.59300
N228        N  0.05854151  0.62762538  0.55203158    -0.06800
N229        N  0.07201991  0.63322350  0.59641075    -0.61400
N230        N  0.04197397  0.58639276  0.55363097    -0.06400
N231        N  0.04404382  0.56311349  0.60000407    -0.59300
N232        N  0.05642546  0.63265909  0.43064910    -0.06100
N233        N  0.06869409  0.64095712  0.38525352    -0.61800
C234        C  0.05897360  0.60202890  0.35443822     0.95000
C235        C  0.06331892  0.59238479  0.62603690     0.94800
N236        N  0.03166411  0.78714277  0.55924448    -0.07300
N237        N  0.04160741  0.82670356  0.58809365    -0.59900
N238        N  0.04942530  0.75495773  0.43898153    -0.05500
N239        N  0.07224447  0.77161256  0.41568784    -0.61100
N240        N  0.03024071  0.79397478  0.44327827    -0.07400
N241        N  0.04080132  0.83870551  0.42395829    -0.60100
N242        N  0.05108976  0.74856112  0.55581247    -0.05100
N243        N  0.07344276  0.75960254  0.58315626    -0.61200
Mn244      Mn  0.05388228  0.69011269  0.49408300     1.18400
C245        C  0.06751668  0.80776105  0.60347950     0.97100
C246        C  0.06692087  0.82343507  0.40626662     0.97800
N247        N  0.47648346  0.57530102  0.55700509    -0.07400
N248        N  0.47924312  0.55365031  0.60396124    -0.63700
N249        N  0.45356251  0.61408627  0.43493908    -0.06200
N250        N  0.44017734  0.61779938  0.39000326    -0.64400
N251        N  0.47505088  0.58003923  0.43175478    -0.06900
N252        N  0.47679728  0.56054085  0.38382544    -0.64000
N253        N  0.45454449  0.60845287  0.55686481    -0.05800
N254        N  0.44185715  0.60930090  0.60279234    -0.64700
Mn255      Mn  0.50842763  0.57984099  0.49283098     1.10700
C256        C  0.45704933  0.57434524  0.63181353     0.98300
C257        C  0.45457956  0.58371920  0.35835987     0.98400
N258        N  0.45954618  0.78130348  0.44605277    -0.06900
N259        N  0.44383366  0.82152965  0.42710661    -0.62300
N260        N  0.44626742  0.73012184  0.56030294    -0.06200
N261        N  0.42246853  0.73523837  0.58630592    -0.59000
N262        N  0.46047476  0.77488471  0.56128845    -0.07500
N263        N  0.44521299  0.81203096  0.58664957    -0.61900
N264        N  0.44512848  0.73682357  0.44351429    -0.06500
N265        N  0.42050369  0.74572719  0.42169804    -0.59000
Mn266      Mn  0.49538803  0.78614557  0.50266986     1.20200
Mn267      Mn  0.44985890  0.67137115  0.49864525     1.10100
Cl268      Cl  0.50181637  0.68228534  0.49705058    -0.87000
C269        C  0.41956486  0.79832293  0.41158846     0.95300
C270        C  0.42192424  0.78580064  0.60321018     0.95100
C271        C  0.35097635  0.80208048  0.67001161    -0.21300
C272        C  0.33822429  0.84378420  0.64131098    -0.07900
C273        C  0.35362925  0.86768787  0.60053743     0.13000
C274        C  0.38175075  0.85050261  0.59072286    -0.21400
C275        C  0.39476900  0.81007770  0.62093346    -0.07900
C276        C  0.37890630  0.78489785  0.66039706     0.12900
C277        C  0.39167055  0.74097926  0.69384993    -0.24800
H278        H  0.33943791  0.78485959  0.70224317     0.14200
H279        H  0.39340916  0.86795550  0.55888086     0.14300
C280        C  0.34074673  0.91239825  0.56853945    -0.24700
H281        H  0.37679743  0.72800165  0.72470129     0.04500
H282        H  0.41097076  0.75545612  0.71311374     0.07700
H283        H  0.39718498  0.70532621  0.66984283     0.07700
H284        H  0.33495017  0.94690225  0.59395131     0.07700
H285        H  0.32149416  0.89817023  0.54890073     0.07700
H286        H  0.35557868  0.92644694  0.53809479     0.04500
C287        C  0.13281042  0.88972732  0.61826418    -0.21300
C288        C  0.14582625  0.86266380  0.66007644    -0.07900
C289        C  0.13072577  0.82293421  0.68697702     0.13000
C290        C  0.10346796  0.81047988  0.67076896    -0.21400
C291        C  0.09047905  0.83680930  0.62870117    -0.07900
C292        C  0.10531276  0.87710165  0.60213709     0.12900
C293        C  0.09246351  0.90561502  0.55600869    -0.24800
H294        H  0.14390191  0.92168461  0.59900784     0.14200
H295        H  0.09260007  0.77794677  0.68962233     0.14300
C296        C  0.14360309  0.79221478  0.73202446    -0.24700
H297        H  0.10695747  0.93548852  0.53930043     0.04500
H298        H  0.07266994  0.92686241  0.56822523     0.07700
H299        H  0.08757290  0.87638101  0.52504680     0.07700
H300        H  0.14730021  0.81926921  0.76538694     0.07700
H301        H  0.16394037  0.77305340  0.71965959     0.07700
H302        H  0.12957186  0.76024749  0.74611597     0.04500
C303        C  0.39446390  0.10066517  0.61448832    -0.21300
C304        C  0.39211834  0.14765190  0.58518976    -0.07900
C305        C  0.36483270  0.16464536  0.56722270     0.13000
C306        C  0.34062464  0.13844112  0.58491953    -0.21400
C307        C  0.34293388  0.09531140  0.61918894    -0.07900
C308        C  0.37028499  0.07375247  0.63094664     0.12900
C309        C  0.37483069  0.02261668  0.66136022    -0.24800
H310        H  0.41514465  0.08588885  0.62624270     0.14200
H311        H  0.31983132  0.15404956  0.57492895     0.14300
C312        C  0.36066205  0.21045301  0.52950509    -0.24700
H313        H  0.38901606  0.99497258  0.63896964     0.04500
H314        H  0.35502104  0.00104424  0.66846907     0.07700
H315        H  0.38482960  0.03156011  0.69931696     0.07700
H316        H  0.37453536  0.20428339  0.49489189     0.07700
H317        H  0.36522936  0.24901989  0.54862863     0.07700
H318        H  0.33854210  0.21353147  0.51546846     0.04500
C319        C  0.09173568  0.11100269  0.63234525    -0.21300
C320        C  0.09402098  0.15244487  0.59621638    -0.07900
C321        C  0.12143850  0.16623755  0.57805634     0.13000
C322        C  0.14560254  0.14161065  0.60011246    -0.21400
C323        C  0.14331240  0.10409237  0.64014790    -0.07900
C324        C  0.11591881  0.08669393  0.65468346     0.12900
C325        C  0.11175020  0.04203386  0.69331492    -0.24800
H326        H  0.07090562  0.09935259  0.64507933     0.14200
H327        H  0.16643246  0.15372998  0.58783225     0.14300
C328        C  0.12572507  0.20678810  0.53528024    -0.24700
H329        H  0.08932930  0.03015724  0.69545009     0.04500
H330        H  0.11776619  0.05490758  0.73298057     0.07700
H331        H  0.12456148  0.00622779  0.68147926     0.07700
H332        H  0.12001578  0.24760050  0.54929748     0.07700
H333        H  0.11277752  0.19675681  0.50088284     0.07700
H334        H  0.14811453  0.20759228  0.52228403     0.04500
C335        C  0.35769861  0.89946313  0.39768675    -0.21300
C336        C  0.33742006  0.86679556  0.37488132    -0.07900
C337        C  0.34391698  0.81239441  0.36656026     0.13000
C338        C  0.37102993  0.79242938  0.37787565    -0.21400
C339        C  0.39209952  0.82523977  0.39825849    -0.07900
C340        C  0.38489707  0.87918838  0.41022791     0.12900
C341        C  0.40551144  0.91554942  0.43583848    -0.24800
H342        H  0.35278215  0.94174366  0.40283095     0.14200
H343        H  0.37584866  0.75066176  0.36979950     0.14300
C344        C  0.32239393  0.77575093  0.34375674    -0.24700
H345        H  0.39589863  0.95561770  0.44367483     0.04500
H346        H  0.42415988  0.92076133  0.41014285     0.07700
H347        H  0.41232151  0.89840698  0.47376147     0.07700
H348        H  0.31626365  0.78956275  0.30420748     0.07700
H349        H  0.30334468  0.77574369  0.36920203     0.07700
H350        H  0.33068091  0.73395215  0.34050459     0.04500
C351        C  0.11754116  0.90993757  0.33341234    -0.21300
C352        C  0.14317053  0.89538916  0.35840614    -0.07900
C353        C  0.14211415  0.86701717  0.40568838     0.13000
C354        C  0.11594217  0.84881299  0.42345170    -0.21400
C355        C  0.09081786  0.85861213  0.39531225    -0.07900
C356        C  0.09140819  0.89179095  0.35132195     0.12900
C357        C  0.06486629  0.90509574  0.32152195    -0.24800
H358        H  0.11799784  0.93367330  0.29810217     0.14200
H359        H  0.11534682  0.82363655  0.45781263     0.14300
C360        C  0.16847974  0.85302529  0.43573850    -0.24700
H361        H  0.06909815  0.93129594  0.28755249     0.04500
H362        H  0.04948526  0.92632808  0.34750250     0.07700
H363        H  0.05538115  0.86782267  0.30697613     0.07700
H364        H  0.17884990  0.89023109  0.44812009     0.07700
H365        H  0.18325239  0.82885905  0.41099226     0.07700
H366        H  0.16375281  0.82950353  0.47131803     0.04500
C367        C  0.37364382  0.19930526  0.34473419    -0.21300
C368        C  0.39293640  0.16763270  0.37360122    -0.07900
C369        C  0.38382601  0.11875169  0.39482594     0.13000
C370        C  0.35623205  0.10184168  0.38439358    -0.21400
C371        C  0.33736449  0.13332108  0.35456245    -0.07900
C372        C  0.34610068  0.18294747  0.33530302     0.12900
C373        C  0.32633681  0.21827628  0.30386465    -0.24800
H374        H  0.38009226  0.23780975  0.32996957     0.14200
H375        H  0.34979353  0.06267729  0.39742562     0.14300
C376        C  0.40271779  0.08500555  0.42920348    -0.24700
H377        H  0.33615307  0.25660644  0.29304018     0.04500
H378        H  0.30701924  0.22771337  0.32712182     0.07700
H379        H  0.32026797  0.19765644  0.26748522     0.07700
H380        H  0.40903811  0.10846149  0.46376084     0.07700
H381        H  0.42180864  0.07158823  0.40705839     0.07700
H382        H  0.39181831  0.04907783  0.44352821     0.04500
C383        C  0.10708023  0.19542795  0.32627050    -0.21300
C384        C  0.09169742  0.16754789  0.36401401    -0.07900
C385        C  0.10468384  0.12326647  0.38950267     0.13000
C386        C  0.13236811  0.10702164  0.37520824    -0.21400
C387        C  0.14740054  0.13463767  0.33676761    -0.07900
C388        C  0.13460063  0.17939107  0.31215325     0.12900
C389        C  0.15016937  0.21061932  0.27120805    -0.24800
H390        H  0.09763399  0.23089426  0.30845099     0.14200
H391        H  0.14194825  0.07164958  0.39279726     0.14300
C392        C  0.08982297  0.09411859  0.43264597    -0.24700
H393        H  0.13759203  0.24587114  0.25758101     0.04500
H394        H  0.15492567  0.18504581  0.23681157     0.07700
H395        H  0.17022815  0.22510364  0.28761020     0.07700
H396        H  0.07018930  0.07662026  0.41751667     0.07700
H397        H  0.08442170  0.12221077  0.46489521     0.07700
H398        H  0.10322976  0.06112755  0.44885392     0.04500
C399        C  0.30720403  0.70532488  0.07014737    -0.21300
C400        C  0.31868084  0.67644656  0.11211092    -0.07900
C401        C  0.32376876  0.70359445  0.15919547     0.13000
C402        C  0.31798726  0.75907163  0.16270689    -0.21400
C403        C  0.30795564  0.78875132  0.11960952    -0.07900
C404        C  0.30210534  0.76097853  0.07286865     0.12900
C405        C  0.29276501  0.78970768  0.02407043    -0.24800
H406        H  0.30475165  0.68495312  0.03330236     0.14200
H407        H  0.32216354  0.77952303  0.19891774     0.14300
C408        C  0.33629062  0.67420733  0.20516707    -0.24700
H409        H  0.29035358  0.76130468  0.99157676     0.04500
H410        H  0.30870744  0.81930818  0.01242498     0.07700
H411        H  0.27199089  0.81018362  0.02974443     0.07700
H412        H  0.35744279  0.65716414  0.19479693     0.07700
H413        H  0.32227206  0.64126314  0.21678115     0.07700
H414        H  0.33875334  0.70101567  0.23924880     0.04500
C415        C  0.29611525  0.28237819  0.09101430    -0.21300
C416        C  0.32010369  0.30064693  0.11676873    -0.07900
C417        C  0.33498953  0.26458708  0.14996511     0.13000
C418        C  0.32790071  0.21037751  0.15111257    -0.21400
C419        C  0.30549950  0.19050989  0.12169235    -0.07900
C420        C  0.28822487  0.22820704  0.09437770     0.12900
C421        C  0.26104796  0.21212796  0.07035997    -0.24800
H422        H  0.28434860  0.30973611  0.06599705     0.14200
H423        H  0.34053761  0.18307989  0.17473400     0.14300
C424        C  0.35877536  0.28294093  0.18412265    -0.24700
H425        H  0.24892041  0.24703603  0.05465634     0.04500
H426        H  0.24818334  0.19336939  0.10096522     0.07700
H427        H  0.26497750  0.18300543  0.03866120     0.07700
H428        H  0.35120354  0.31687622  0.20879956     0.07700
H429        H  0.37707492  0.29553036  0.16048323     0.07700
H430        H  0.36654885  0.25053715  0.21038689     0.04500
C431        C  0.33920830  0.71318385  0.84892180    -0.21300
C432        C  0.32094936  0.67907461  0.87562686    -0.07900
C433        C  0.29494360  0.70072559  0.89437040     0.13000
C434        C  0.28912470  0.75646332  0.88942430    -0.21400
C435        C  0.30925967  0.79139267  0.86863506    -0.07900
C436        C  0.33447320  0.76864393  0.84698332     0.12900
C437        C  0.35779420  0.80213977  0.82476791    -0.24800
H438        H  0.35894308  0.69674294  0.83359366     0.14200
H439        H  0.26927497  0.77308773  0.90401273     0.14300
C440        C  0.27391952  0.66605567  0.92144740    -0.24700
H441        H  0.37683010  0.77761000  0.81418429     0.04500
H442        H  0.36439419  0.83194766  0.85408155     0.07700
H443        H  0.35062842  0.82263029  0.78874083     0.07700
H444        H  0.28345585  0.64765700  0.95671907     0.07700
H445        H  0.26717045  0.63407356  0.89459076     0.07700
H446        H  0.25489326  0.68954130  0.93391412     0.04500
C447        C  0.31696681  0.26755503  0.93229615    -0.21300
C448        C  0.31788491  0.30121695  0.88845618    -0.07900
C449        C  0.31338078  0.27919024  0.83868618     0.13000
C450        C  0.30808779  0.22409599  0.83401101    -0.21400
C451        C  0.30868244  0.19007678  0.87779278    -0.07900
C452        C  0.31368566  0.21217532  0.92735512     0.12900
C453        C  0.31832936  0.17691288  0.97427565    -0.24800
H454        H  0.32185956  0.28397178  0.97023463     0.14200
H455        H  0.30432729  0.20722380  0.79584075     0.14300
C456        C  0.31535882  0.31337761  0.79058668    -0.24700
H457        H  0.32370590  0.20047256  0.00931679     0.04500
H458        H  0.33616311  0.14833082  0.96649264     0.07700
H459        H  0.29916027  0.15412224  0.98297793     0.07700
H460        H  0.33683110  0.32995596  0.78728653     0.07700
H461        H  0.29957051  0.34684688  0.79298242     0.07700
H462        H  0.31124114  0.29010155  0.75467140     0.04500
C463        C  0.47202028  0.60783473  0.77372369    -0.21300
C464        C  0.45109101  0.57946851  0.79983419    -0.07900
C465        C  0.43096160  0.55184056  0.77031940     0.13000
C466        C  0.43389729  0.54873590  0.71568976    -0.21400
C467        C  0.45550943  0.57535240  0.68965873    -0.07900
C468        C  0.47345537  0.60819837  0.71884779     0.12900
C469        C  0.49308161  0.64557607  0.69178170    -0.24800
H470        H  0.48670803  0.63097075  0.79618238     0.14200
H471        H  0.41881634  0.52684061  0.69304287     0.14300
C472        C  0.40595618  0.52715388  0.79662651    -0.24700
H473        H  0.50473666  0.67010663  0.72005821     0.04500
H474        H  0.48076680  0.67339199  0.66637654     0.07700
H475        H  0.50832229  0.62235441  0.66741831     0.07700
H476        H  0.39294662  0.55882221  0.81620638     0.07700
H477        H  0.41325497  0.49773918  0.82630240     0.07700
H478        H  0.39224329  0.50684067  0.76831330     0.04500
C479        C  0.47626840  0.58482426  0.27049589    -0.21300
C480        C  0.45159321  0.58422163  0.30057133    -0.07900
C481        C  0.42523388  0.58642652  0.27472319     0.13000
C482        C  0.42458637  0.58709906  0.21966961    -0.21400
C483        C  0.44956889  0.58309728  0.18980447    -0.07900
C484        C  0.47558350  0.58108004  0.21594889     0.12900
C485        C  0.50284404  0.57411701  0.18684789    -0.24800
H486        H  0.49643191  0.58713915  0.28993898     0.14200
H487        H  0.40441275  0.58852606  0.19988141     0.14300
C488        C  0.39783280  0.58696682  0.30473288    -0.24700
H489        H  0.52039084  0.56866034  0.21450668     0.04500
H490        H  0.50629726  0.60934900  0.16152250     0.07700
H491        H  0.50291332  0.53728132  0.16306024     0.07700
H492        H  0.39586622  0.62388246  0.32856191     0.07700
H493        H  0.39711459  0.55139508  0.33056039     0.07700
H494        H  0.37932492  0.58607690  0.27836061     0.04500
C495        C  0.41985479  0.39824157  0.77624319    -0.21300
C496        C  0.44524705  0.38321531  0.80085580    -0.07900
C497        C  0.46845079  0.36625607  0.77026559     0.13000
C498        C  0.46731566  0.37265799  0.71584242    -0.21400
C499        C  0.44269193  0.39242458  0.69138365    -0.07900
C500        C  0.41817538  0.40207496  0.72168939     0.12900
C501        C  0.39027444  0.41591758  0.69655476    -0.24800
H502        H  0.40132465  0.40740307  0.79983018     0.14200
H503        H  0.48535035  0.36043065  0.69206506     0.14300
C504        C  0.49305437  0.33715265  0.79501892    -0.24700
H505        H  0.37333417  0.42309457  0.72600026     0.04500
H506        H  0.38383819  0.38234826  0.67134104     0.07700
H507        H  0.39207851  0.45243317  0.67235390     0.07700
H508        H  0.48561199  0.29993855  0.81364377     0.07700
H509        H  0.50238590  0.36234414  0.82557698     0.07700
H510        H  0.50949028  0.32575405  0.76584806     0.04500
C511        C  0.42354619  0.43207486  0.26992620    -0.21300
C512        C  0.44130707  0.39972166  0.30056346    -0.07900
C513        C  0.46023316  0.36260474  0.27612072     0.13000
C514        C  0.46207274  0.36111561  0.22143912    -0.21400
C515        C  0.44451735  0.39395166  0.19083167    -0.07900
C516        C  0.42444324  0.42868773  0.21527450     0.12900
C517        C  0.40359880  0.46138297  0.18366091    -0.24800
H518        H  0.40865530  0.45951399  0.28886568     0.14200
H519        H  0.47703696  0.33380663  0.20246583     0.14300
C520        C  0.47867983  0.32498040  0.30775201    -0.24700
H521        H  0.38963981  0.48687309  0.20880010     0.04500
H522        H  0.39001997  0.43439457  0.16104197     0.07700
H523        H  0.41494816  0.48765933  0.15628927     0.07700
H524        H  0.46527695  0.29834009  0.33140020     0.07700
H525        H  0.49230014  0.34792313  0.33414643     0.07700
H526        H  0.49260253  0.29947977  0.28254850     0.04500
C527        C  0.20592268  0.76587525  0.84714004    -0.21300
C528        C  0.20264642  0.79688198  0.89259448    -0.07900
C529        C  0.19722487  0.77132413  0.94033072     0.13000
C530        C  0.19461847  0.71551224  0.94145915    -0.21400
C531        C  0.19639346  0.68453434  0.89568209    -0.07900
C532        C  0.20248527  0.71006645  0.84808673     0.12900
C533        C  0.20379697  0.67880738  0.79803300    -0.24800
H534        H  0.21008703  0.78569389  0.81042235     0.14200
H535        H  0.18813603  0.69661569  0.97744520     0.14300
C536        C  0.19142998  0.80338370  0.98901221    -0.24700
H537        H  0.20876325  0.70474895  0.76421630     0.04500
H538        H  0.18315031  0.66019487  0.79072573     0.07700
H539        H  0.22047913  0.64698252  0.80083032     0.07700
H540        H  0.17397575  0.83293320  0.98198812     0.07700
H541        H  0.21067365  0.82475010  0.00049750     0.07700
H542        H  0.18479415  0.77753225  0.02174117     0.04500
C543        C  0.21066248  0.28966719  0.90392054    -0.21300
C544        C  0.19058749  0.31131490  0.86947021    -0.07900
C545        C  0.17968421  0.27815727  0.83041765     0.13000
C546        C  0.18541858  0.22296617  0.83195950    -0.21400
C547        C  0.20270100  0.19971873  0.87065067    -0.07900
C548        C  0.21729282  0.23443949  0.90435541     0.12900
C549        C  0.23959385  0.21432807  0.94112867    -0.24800
H550        H  0.21945483  0.31523462  0.93350777     0.14200
H551        H  0.17557269  0.19790442  0.80314241     0.14300
C552        C  0.16126984  0.29970536  0.78736958    -0.24700
H553        H  0.24964764  0.24756884  0.96214217     0.04500
H554        H  0.25623116  0.19301564  0.91865497     0.07700
H555        H  0.23061998  0.18682962  0.97010250     0.07700
H556        H  0.15757147  0.34360002  0.79015779     0.07700
H557        H  0.14076529  0.27942526  0.78853648     0.07700
H558        H  0.17157736  0.29105644  0.74921131     0.04500
C559        C  0.17937968  0.70236410  0.15691610    -0.21300
C560        C  0.19427523  0.67211666  0.11941153    -0.07900
C561        C  0.21683740  0.69604240  0.09271828     0.13000
C562        C  0.22128990  0.75133057  0.09909574    -0.21400
C563        C  0.20352948  0.78357534  0.13099157    -0.07900
C564        C  0.18356665  0.75740960  0.16329584     0.12900
C565        C  0.16557290  0.78656805  0.20342330    -0.24800
H566        H  0.16224695  0.68373490  0.17786818     0.14200
H567        H  0.23759064  0.76995110  0.07645369     0.14300
C568        C  0.23512668  0.66418068  0.05527418    -0.24700
H569        H  0.15207871  0.75892250  0.22582930     0.04500
H570        H  0.15122170  0.81610359  0.18415749     0.07700
H571        H  0.17928652  0.80674273  0.23191348     0.07700
H572        H  0.22218344  0.64647817  0.02418807     0.07700
H573        H  0.24638461  0.63153091  0.07663856     0.07700
H574        H  0.25104654  0.68952405  0.03620066     0.04500
C575        C  0.18360463  0.26382718  0.04854132    -0.21300
C576        C  0.18675500  0.29711556  0.09237079    -0.07900
C577        C  0.19333490  0.27356373  0.14086828     0.13000
C578        C  0.19696433  0.21756931  0.14421190    -0.21400
C579        C  0.19288524  0.18457141  0.10056688    -0.07900
C580        C  0.18524099  0.20788015  0.05273207     0.12900
C581        C  0.17562351  0.17373594  0.00812422    -0.24800
H582        H  0.17681438  0.28159526  0.01199679     0.14200
H583        H  0.20252283  0.19930351  0.18123580     0.14300
C584        C  0.19535736  0.30726494  0.18919191    -0.24700
H585        H  0.17014276  0.19818499  0.97332982     0.04500
H586        H  0.15650081  0.15200881  0.02024787     0.07700
H587        H  0.19219596  0.14378625  0.99706680     0.07700
H588        H  0.17478322  0.32807265  0.19697023     0.07700
H589        H  0.21192734  0.33740560  0.18372667     0.07700
H590        H  0.20088024  0.28264790  0.22388785     0.04500
C591        C  0.07353337  0.54814510  0.76717187    -0.21300
C592        C  0.06575724  0.59529820  0.79412764    -0.07900
C593        C  0.06076760  0.64269584  0.76546939     0.13000
C594        C  0.06110353  0.64078182  0.71069058    -0.21400
C595        C  0.06664441  0.59270666  0.68369809    -0.07900
C596        C  0.07507083  0.54705077  0.71225064     0.12900
C597        C  0.08826543  0.49956142  0.68478322    -0.24800
H598        H  0.07970805  0.51283266  0.78925156     0.14200
H599        H  0.05612304  0.67684114  0.68876607     0.14300
C600        C  0.05451533  0.69507805  0.79258105    -0.24700
H601        H  0.09346513  0.46653851  0.71230680     0.04500
H602        H  0.10811125  0.51170567  0.66542377     0.07700
H603        H  0.07391518  0.48490480  0.65442994     0.07700
H604        H  0.07275477  0.70591643  0.81707240     0.03500
H605        H  0.03545449  0.69152745  0.81757782     0.07700
H606        H  0.55064681  0.72808496  0.76424240     0.04500
C607        C  0.07488788  0.55874181  0.27135939    -0.21300
C608        C  0.06247856  0.60302437  0.29687230    -0.07900
C609        C  0.05462110  0.64897069  0.26724622     0.13000
C610        C  0.05801474  0.64834353  0.21268655    -0.21400
C611        C  0.06923374  0.60310302  0.18707579    -0.07900
C612        C  0.07919537  0.55906623  0.21699179     0.12900
C613        C  0.09541935  0.51353172  0.19169030    -0.24800
H614        H  0.08184464  0.52443593  0.29412675     0.14200
H615        H  0.05078213  0.68233287  0.18973771     0.14300
C616        C  0.04149097  0.69800400  0.29264852    -0.24700
H617        H  0.10164987  0.48213334  0.22029209     0.04500
H618        H  0.11486827  0.52883508  0.17320264     0.07700
H619        H  0.08248330  0.49516734  0.16126806     0.07700
H620        H  0.05689646  0.71652065  0.31910826     0.07700
H621        H  0.02239582  0.68690540  0.31508270     0.07700
H622        H  0.03507846  0.72869886  0.26345998     0.04500
C623        C  0.06102853  0.36576590  0.71349962    -0.21300
C624        C  0.04294311  0.40385235  0.68967642    -0.07900
C625        C  0.02866614  0.44192037  0.72198771     0.13000
C626        C  0.03346071  0.44156381  0.77596797    -0.21400
C627        C  0.05210784  0.40442458  0.79954506    -0.07900
C628        C  0.06568494  0.36529885  0.76759756     0.12900
C629        C  0.08480922  0.32228065  0.78976811    -0.24800
H630        H  0.07182220  0.33589360  0.68959723     0.14200
H631        H  0.02264439  0.47130752  0.79998351     0.14300
C632        C  0.50896288  0.48453024  0.70077444    -0.24700
H633        H  0.09255199  0.29393049  0.75927663     0.04500
H634        H  0.07322152  0.29889024  0.81938391     0.07700
H635        H  0.10344449  0.34078799  0.80761709     0.07700
H636        H  0.49082039  0.46619057  0.68146336     0.07700
H637        H  0.52024828  0.51005041  0.67287947     0.07700
H638        H  0.50037461  0.51069333  0.73218149     0.04500
C639        C  0.06889760  0.37841988  0.27437737    -0.21300
C640        C  0.04662360  0.40890634  0.29712569    -0.07900
C641        C  0.02746396  0.43528455  0.26309961     0.13000
C642        C  0.03069944  0.43044390  0.20882950    -0.21400
C643        C  0.05335749  0.40181041  0.18605838    -0.07900
C644        C  0.07270681  0.37482431  0.21974935     0.12900
C645        C  0.09772563  0.34288472  0.19912086    -0.24800
H646        H  0.08371076  0.35732720  0.29958475     0.14200
H647        H  0.01544986  0.45034911  0.18367062     0.14300
C648        C  0.00356168  0.46928855  0.28322269    -0.24700
H649        H  0.11026105  0.32428183  0.23103686     0.04500
H650        H  0.11198711  0.36935627  0.17710449     0.07700
H651        H  0.09043168  0.31022310  0.17358756     0.07700
H652        H  0.01215759  0.50324018  0.30516223     0.07700
H653        H  0.99032505  0.44576482  0.30904278     0.07700
H654        H  0.98967530  0.48366082  0.25139123     0.04500
N655        N  0.66506274  0.42497684  0.04923206    -0.07200
N656        N  0.68585369  0.39581311  0.07064677    -0.59300
N657        N  0.64302170  0.39776467  0.93196509    -0.06800
N658        N  0.64791721  0.35520285  0.90293496    -0.61400
N659        N  0.66538783  0.42827767  0.93280740    -0.06400
N660        N  0.68622843  0.40497465  0.90570207    -0.59300
N661        N  0.64170611  0.39731672  0.05103474    -0.06100
N662        N  0.64571692  0.35218557  0.07613720    -0.61800
C663        C  0.67312542  0.35091163  0.08843043     0.95000
C664        C  0.67466859  0.36004795  0.88611766     0.94800
N665        N  0.55750775  0.44471961  0.93178896    -0.07300
N666        N  0.54421710  0.44767569  0.88676776    -0.59900
N667        N  0.57718404  0.40619623  0.05385657    -0.05500
N668        N  0.57776906  0.38162279  0.09956740    -0.61100
N669        N  0.55793371  0.44477882  0.05410547    -0.07400
N670        N  0.54491560  0.44678315  0.09977456    -0.60100
N671        N  0.57723532  0.40705607  0.93015584    -0.05100
N672        N  0.57775544  0.38385534  0.88386214    -0.61200
Mn673      Mn  0.60945552  0.40130551  0.99152056     1.18400
C674        C  0.55688422  0.40931914  0.85699251     0.97100
C675        C  0.55735464  0.40696346  0.12810290     0.97800
N676        N  0.66922369  0.56162747  0.93446524    -0.07400
N677        N  0.69170933  0.58661006  0.91612769    -0.63700
N678        N  0.64716255  0.59603189  0.04865177    -0.06200
N679        N  0.65276445  0.63807332  0.07691676    -0.64400
N680        N  0.66805527  0.56021154  0.05056899    -0.06900
N681        N  0.68896504  0.57940800  0.07900273    -0.64000
N682        N  0.64687171  0.59376536  0.92986293    -0.05800
N683        N  0.65332756  0.63795989  0.90557688    -0.64700
Mn684      Mn  0.66797728  0.49346057  0.99203729     1.10700
C685        C  0.68117491  0.63383109  0.89691871     0.98300
C686        C  0.67857385  0.62767302  0.09617169     0.98400
N687        N  0.56247768  0.56749169  0.05430880    -0.06900
N688        N  0.55274103  0.56480239  0.10263889    -0.62300
N689        N  0.58225775  0.59932873  0.92805265    -0.06200
N690        N  0.58576338  0.61882937  0.88060180    -0.59000
N691        N  0.56152537  0.56544458  0.92878568    -0.07500
N692        N  0.55084331  0.56094294  0.88142470    -0.61900
N693        N  0.58290474  0.60198762  0.05194327    -0.06500
N694        N  0.58718317  0.62361401  0.09817753    -0.59000
Mn695      Mn  0.55835197  0.50630024  0.99257073     1.20200
Mn696      Mn  0.61424043  0.59849256  0.98938744     1.10100
Cl697      Cl  0.61283253  0.49971646  0.99149078    -0.87000
C698        C  0.56801128  0.60065047  0.12938193     0.95300
C699        C  0.56578542  0.59518801  0.85194693     0.95100
N700        N  0.95063399  0.42255838  0.05715242    -0.07200
N701        N  0.96128467  0.42668703  0.10451314    -0.59300
N702        N  0.93024663  0.38628361  0.93449816    -0.06800
N703        N  0.92686031  0.36344028  0.88875026    -0.61400
N704        N  0.95054652  0.42097698  0.93265535    -0.06400
N705        N  0.96139181  0.42216044  0.88494621    -0.59300
N706        N  0.93036608  0.38770364  0.05726435    -0.06100
N707        N  0.92695262  0.36757584  0.10440340    -0.61800
C708        C  0.94668860  0.39140937  0.13339713     0.95000
C709        C  0.94668231  0.38524714  0.85827732     0.94800
N710        N  0.84346902  0.42154044  0.93788679    -0.07300
N711        N  0.82213333  0.39789712  0.91438595    -0.59900
N712        N  0.86580215  0.38820862  0.05470629    -0.05500
N713        N  0.86121748  0.34460131  0.08133967    -0.61100
N714        N  0.84327794  0.42030655  0.05453526    -0.07400
N715        N  0.82240490  0.39635766  0.07996055    -0.60100
N716        N  0.86587778  0.38911090  0.93633341    -0.05100
N717        N  0.86067972  0.34570213  0.90977948    -0.61200
Mn718      Mn  0.89858620  0.38744991  0.99574781     1.18400
C719        C  0.83354702  0.35103355  0.89576009     0.97100
C720        C  0.83446910  0.34960307  0.09781556     0.97800
N721        N  0.95148594  0.54371117  0.93241122    -0.07400
N722        N  0.96376147  0.54066208  0.88600708    -0.63700
N723        N  0.93071513  0.58133379  0.05626994    -0.06200
N724        N  0.92786618  0.60348628  0.10284442    -0.64400
N725        N  0.95102484  0.54471814  0.05630438    -0.06900
N726        N  0.96248623  0.54171726  0.10312442    -0.64000
N727        N  0.93131503  0.58064856  0.93225317    -0.05800
N728        N  0.92950244  0.60329296  0.88573595    -0.64700
Mn729      Mn  0.95242011  0.48286534  0.99451143     1.10700
C730        C  0.95024238  0.57879045  0.85743521     0.98300
C731        C  0.94811187  0.57906972  0.13170145     0.98400
N732        N  0.84394080  0.55613731  0.05475345    -0.06900
N733        N  0.82295488  0.58083777  0.08056220    -0.62300
N734        N  0.86618437  0.58635295  0.93658082    -0.06200
N735        N  0.86163272  0.63016338  0.90977418    -0.59000
N736        N  0.84344595  0.55689402  0.93804858    -0.07500
N737        N  0.82249302  0.58294024  0.91340868    -0.61900
N738        N  0.86618743  0.58696093  0.05478268    -0.06500
N739        N  0.86122942  0.63051592  0.08223678    -0.59000
Mn740      Mn  0.84222558  0.48881091  0.99639385     1.20200
Mn741      Mn  0.89909757  0.58440191  0.99482458     1.10100
Cl742      Cl  0.89744920  0.48601930  0.99535044    -0.87000
C743        C  0.83450017  0.62652945  0.09892438     0.95300
C744        C  0.83458592  0.62840071  0.89510667     0.95100
N745        N  0.70914609  0.06021275  0.30243921    -0.07200
N746        N  0.69626362  0.09160560  0.33744424    -0.59300
N747        N  0.69398703  0.93714232  0.26907088    -0.06800
N748        N  0.66971729  0.91528669  0.27926731    -0.61400
N749        N  0.70924987  0.94130910  0.31167451    -0.06400
N750        N  0.69448655  0.92339381  0.35205796    -0.59300
N751        N  0.69314146  0.05696150  0.26070667    -0.06100
N752        N  0.67016400  0.08685089  0.26553869    -0.61800
C753        C  0.67234948  0.10892123  0.31280176     0.95000
C754        C  0.66991444  0.90684641  0.33074728     0.94800
N755        N  0.72113056  0.92197887  0.11600320    -0.07300
N756        N  0.72510606  0.87125177  0.10158740    -0.59900
N757        N  0.69775232  0.05117769  0.14274277    -0.05500
N758        N  0.68423465  0.09791969  0.14367561    -0.61100
N759        N  0.71792491  0.05070723  0.10757614    -0.07400
N760        N  0.71835831  0.09753724  0.08349556    -0.60100
N761        N  0.70069015  0.92518683  0.15073262    -0.05100
N762        N  0.69045452  0.87754887  0.15994713    -0.61200
Mn763      Mn  0.69622338  0.99239091  0.20462575     1.18400
C764        C  0.70565506  0.84378243  0.12929715     0.97100
C765        C  0.69691328  0.12623353  0.10603999     0.97800
N766        N  0.77986802  0.93864854  0.31783078    -0.07400
N767        N  0.78975710  0.91296731  0.35952201    -0.63700
N768        N  0.79841579  0.05459543  0.27210453    -0.06200
N769        N  0.82026125  0.08416320  0.28115096    -0.64400
N770        N  0.77968804  0.05843929  0.31021349    -0.06900
N771        N  0.78948708  0.09012566  0.34724657    -0.64000
N772        N  0.79871490  0.93517459  0.27972419    -0.05800
N773        N  0.82096816  0.90675862  0.29406196    -0.64700
Mn774      Mn  0.74450696  0.99981983  0.31255653     1.10700
C775        C  0.81518702  0.89267576  0.34323539     0.98300
C776        C  0.81454571  0.10657288  0.32735894     0.98400
N777        N  0.78278750  0.05409482  0.11618721    -0.06900
N778        N  0.78138223  0.10318776  0.09617847    -0.62300
N779        N  0.80213623  0.92536485  0.15888888    -0.06200
N780        N  0.81430528  0.87750436  0.16454172    -0.59000
N781        N  0.78504402  0.92571843  0.11890474    -0.07500
N782        N  0.78536511  0.87812336  0.09655675    -0.61900
N783        N  0.80134815  0.05236167  0.15401969    -0.06500
N784        N  0.81294592  0.09938578  0.15990111    -0.59000
Mn785      Mn  0.75178202  0.98835911  0.11135795     1.20200
Mn786      Mn  0.80060257  0.99123882  0.21527381     1.10100
Cl787      Cl  0.74829382  0.99293279  0.21157617    -0.87000
C788        C  0.80053468  0.13121229  0.12380174     0.95300
C789        C  0.80382140  0.84826070  0.12498963     0.95100
N790        N  0.72096324  0.06082985  0.88335069    -0.07200
N791        N  0.72452924  0.11062870  0.89930245    -0.59300
N792        N  0.70039518  0.93260280  0.85430823    -0.06800
N793        N  0.68945418  0.88457341  0.85184839    -0.61400
N794        N  0.72048494  0.93327388  0.88927765    -0.06400
N795        N  0.72332154  0.88577931  0.91166110    -0.59300
N796        N  0.70053521  0.05981893  0.84895497    -0.06100
N797        N  0.68989247  0.10842920  0.84138537    -0.61800
C798        C  0.70491342  0.14008403  0.87294531     0.95000
C799        C  0.70364604  0.85596217  0.88828254     0.94800
N800        N  0.70911086  0.92858910  0.69312718    -0.07300
N801        N  0.69535532  0.90070776  0.65756492    -0.59900
N802        N  0.69295814  0.05074619  0.72921771    -0.05500
N803        N  0.66859402  0.07494269  0.71976944    -0.61100
N804        N  0.70866332  0.04777095  0.68650061    -0.07400
N805        N  0.69422637  0.06926168  0.64698152    -0.60100
N806        N  0.69377751  0.93111516  0.73618571    -0.05100
N807        N  0.67055378  0.90417535  0.73155774    -0.61200
Mn808      Mn  0.69661803  0.99383984  0.79349606     1.18400
C809        C  0.67168256  0.88463096  0.68309571     0.97100
C810        C  0.66924493  0.08614340  0.66873429     0.97800
N811        N  0.78458238  0.92790070  0.87807217    -0.07400
N812        N  0.78414379  0.87835378  0.89705826    -0.63700
N813        N  0.80170910  0.05609975  0.83580106    -0.06200
N814        N  0.81388191  0.10278288  0.83019934    -0.64400
N815        N  0.78509756  0.05634593  0.87678747    -0.06900
N816        N  0.78583902  0.10332430  0.90029692    -0.64000
N817        N  0.80263795  0.92983319  0.83925825    -0.05800
N818        N  0.81490481  0.88270416  0.83168898    -0.64700
Mn819      Mn  0.75278157  0.99453566  0.88505554     1.10700
C820        C  0.80362183  0.85061944  0.86788880     0.98300
C821        C  0.80408114  0.13178079  0.87114139     0.98400
N822        N  0.78035934  0.04504311  0.67711643    -0.06900
N823        N  0.79265733  0.06446108  0.63450650    -0.62300
N824        N  0.79876067  0.92830751  0.72203150    -0.06200
N825        N  0.82053822  0.89627193  0.71353195    -0.59000
N826        N  0.78012044  0.92534946  0.68426670    -0.07500
N827        N  0.79002893  0.89185761  0.64780286    -0.61900
N828        N  0.79802982  0.04868784  0.71656814    -0.06500
N829        N  0.82134135  0.07190291  0.70243448    -0.59000
Mn830      Mn  0.74456213  0.98668269  0.68311733     1.20200
Mn831      Mn  0.80047092  0.99134854  0.77921561     1.10100
Cl832      Cl  0.74851338  0.99184426  0.78447930    -0.87000
C833        C  0.81822653  0.08111072  0.65150814     0.95300
C834        C  0.81504676  0.87331622  0.66783805     0.95100
N835        N  0.52872607  0.21160460  0.42885111    -0.07200
N836        N  0.54162025  0.17286393  0.40153981    -0.59300
N837        N  0.54532532  0.24788999  0.54751595    -0.06800
N838        N  0.56932437  0.23601280  0.57049577    -0.61400
N839        N  0.52917649  0.20561844  0.54485459    -0.06400
N840        N  0.54312992  0.16366187  0.56506752    -0.59300
N841        N  0.54520597  0.25336150  0.43046836    -0.06100
N842        N  0.56833292  0.24497377  0.40316775    -0.61800
C843        C  0.56606638  0.19517818  0.38502375     0.95000
C844        C  0.56818817  0.18373638  0.58094180     0.94800
N845        N  0.52285597  0.40979349  0.55576572    -0.07300
N846        N  0.52077225  0.43026529  0.60324821    -0.59900
N847        N  0.54310237  0.37483101  0.43167625    -0.05500
N848        N  0.55586113  0.37064337  0.38589126    -0.61100
N849        N  0.52324363  0.41228699  0.43072976    -0.07400
N850        N  0.52226028  0.43407001  0.38358761    -0.60100
N851        N  0.54209662  0.37118930  0.55493223    -0.05100
N852        N  0.55337510  0.36480822  0.60151598    -0.61200
Mn853      Mn  0.54408186  0.31277539  0.49150301     1.18400
C854        C  0.53999354  0.40198178  0.63160388     0.97100
C855        C  0.54289249  0.40786390  0.35571478     0.97800
N856        N  0.95729892  0.20408593  0.54458805    -0.07400
N857        N  0.94375260  0.16093466  0.56053823    -0.63700
N858        N  0.94004308  0.25343907  0.43164917    -0.06200
N859        N  0.91649208  0.24515356  0.40691808    -0.64400
N860        N  0.95714078  0.21101471  0.42976541    -0.06900
N861        N  0.94407320  0.17184026  0.40519845    -0.64000
N862        N  0.94004635  0.24628242  0.54859583    -0.05800
N863        N  0.91572938  0.23294649  0.56886728    -0.64700
Mn864      Mn  0.49320714  0.20615615  0.48712754     1.10700
C865        C  0.91777950  0.17998260  0.57559951     0.98300
C866        C  0.91886192  0.19461679  0.39043170     0.98400
N867        N  0.95783584  0.41188667  0.43311084    -0.06900
N868        N  0.95940195  0.43221021  0.38564272    -0.62300
N869        N  0.94015188  0.36946199  0.55646162    -0.06200
N870        N  0.92943447  0.36119216  0.60329737    -0.59000
N871        N  0.95873278  0.40755242  0.55763596    -0.07500
N872        N  0.96111704  0.42530525  0.60595629    -0.61900
N873        N  0.93906219  0.37420981  0.43407580    -0.06500
N874        N  0.92763780  0.36835894  0.38769976    -0.59000
Mn875      Mn  0.99055387  0.41366868  0.49403138     1.20200
Mn876      Mn  0.93977353  0.31195254  0.49308841     1.10100
Cl877      Cl  0.99193162  0.31056055  0.49138097    -0.87000
C878        C  0.94011436  0.40526713  0.35785325     0.95300
C879        C  0.94236201  0.39677616  0.63380384     0.95100
N880        N  0.53978456  0.59112065  0.42863505    -0.07200
N881        N  0.54043200  0.57062066  0.38089346    -0.59300
N882        N  0.55848269  0.62753000  0.55198182    -0.06800
N883        N  0.57201289  0.63314528  0.59630145    -0.61400
N884        N  0.54189768  0.58632809  0.55367159    -0.06400
N885        N  0.54400947  0.56308546  0.60005384    -0.59300
N886        N  0.55627691  0.63247143  0.43064354    -0.06100
N887        N  0.56853358  0.64070209  0.38522781    -0.61800
C888        C  0.55878287  0.60176579  0.35445802     0.95000
C889        C  0.56332681  0.59234777  0.62598939     0.94800
N890        N  0.53165445  0.78702249  0.55929500    -0.07300
N891        N  0.54162618  0.82656670  0.58813467    -0.59900
N892        N  0.54935032  0.75484233  0.43895863    -0.05500
N893        N  0.57217727  0.77151163  0.41569480    -0.61100
N894        N  0.53018589  0.79388475  0.44334064    -0.07400
N895        N  0.54076483  0.83863668  0.42410455    -0.60100
N896        N  0.55107777  0.74844277  0.55578681    -0.05100
N897        N  0.57345480  0.75946576  0.58307529    -0.61200
Mn898      Mn  0.55380438  0.68997976  0.49404531     1.18400
C899        C  0.56755063  0.80761595  0.60344088     0.97100
C900        C  0.56687549  0.82336159  0.40637576     0.97800
N901        N  0.97657404  0.57532040  0.55680659    -0.07400
N902        N  0.97930500  0.55359026  0.60373525    -0.63700
N903        N  0.95370800  0.61424257  0.43476090    -0.06200
N904        N  0.94036090  0.61807126  0.38979868    -0.64400
N905        N  0.97521191  0.58023067  0.43154458    -0.06900
N906        N  0.97700479  0.56087950  0.38356041    -0.64000
N907        N  0.95463941  0.60848173  0.55667695    -0.05800
N908        N  0.94192598  0.60925270  0.60257933    -0.64700
Mn909      Mn  0.00855030  0.57994898  0.49269711     1.10700
C910        C  0.95709614  0.57424275  0.63157869     0.98300
C911        C  0.95480041  0.58411321  0.35809681     0.98400
N912        N  0.95955397  0.78146005  0.44599643    -0.06900
N913        N  0.94377096  0.82171689  0.42728757    -0.62300
N914        N  0.94631631  0.73019966  0.56017667    -0.06200
N915        N  0.92248554  0.73534631  0.58607418    -0.59000
N916        N  0.96050971  0.77498209  0.56115106    -0.07500
N917        N  0.94521307  0.81216096  0.58639471    -0.61900
N918        N  0.94515531  0.73695718  0.44342704    -0.06500
N919        N  0.92047823  0.74588848  0.42180893    -0.59000
Mn920      Mn  0.99542477  0.78625262  0.50257808     1.20200
Mn921      Mn  0.94994646  0.67145579  0.49850650     1.10100
Cl922      Cl  0.00189740  0.68239411  0.49696845    -0.87000
C923        C  0.91948033  0.79851733  0.41186676     0.95300
C924        C  0.92191341  0.78593899  0.60289651     0.95100
C925        C  0.85101704  0.80220135  0.66984021    -0.21300
C926        C  0.83822361  0.84386717  0.64114800    -0.07900
C927        C  0.85358162  0.86774998  0.60029809     0.13000
C928        C  0.88169436  0.85056216  0.59039046    -0.21400
C929        C  0.89475839  0.81020480  0.62062122    -0.07900
C930        C  0.87894844  0.78506923  0.66017740     0.12900
C931        C  0.89177732  0.74125918  0.69368324    -0.24800
H932        H  0.83951155  0.78498001  0.70211220     0.14200
H933        H  0.89331831  0.86798672  0.55847801     0.14300
C934        C  0.84066648  0.91246244  0.56834660    -0.24700
H935        H  0.87694059  0.72829525  0.72459560     0.04500
H936        H  0.91107934  0.75584050  0.71286341     0.07700
H937        H  0.89730659  0.70557066  0.66973372     0.07700
H938        H  0.83492712  0.94698394  0.59378018     0.07700
H939        H  0.82137733  0.89825464  0.54881344     0.07700
H940        H  0.85545778  0.92647681  0.53781800     0.04500
C941        C  0.63270082  0.89006605  0.61834246    -0.21300
C942        C  0.64584438  0.86288542  0.65995261    -0.07900
C943        C  0.63089166  0.82285092  0.68669209     0.13000
C944        C  0.60365699  0.81019314  0.67050361    -0.21400
C945        C  0.59053664  0.83664990  0.62863808    -0.07900
C946        C  0.60522224  0.87725418  0.60224414     0.12900
C947        C  0.59224269  0.90590277  0.55631661    -0.24800
H948        H  0.64367915  0.92225300  0.59922234     0.14200
H949        H  0.59290441  0.77744785  0.68923348     0.14300
C950        C  0.64390455  0.79205658  0.73155993    -0.24700
H951        H  0.60662596  0.93604171  0.53973898     0.04500
H952        H  0.57239786  0.92686224  0.56870910     0.07700
H953        H  0.58741786  0.87679455  0.52520212     0.07700
H954        H  0.64757547  0.81901644  0.76500850     0.07700
H955        H  0.66427616  0.77314373  0.71903514     0.07700
H956        H  0.62997793  0.75989405  0.74557876     0.04500
C957        C  0.89459363  0.10088203  0.61470506    -0.21300
C958        C  0.89220771  0.14774163  0.58522890    -0.07900
C959        C  0.86490756  0.16462953  0.56725224     0.13000
C960        C  0.84072577  0.13840965  0.58503232    -0.21400
C961        C  0.84307094  0.09538820  0.61941762    -0.07900
C962        C  0.87043956  0.07395637  0.63125758     0.12900
C963        C  0.87503416  0.02292708  0.66181949    -0.24800
H964        H  0.91528677  0.08620610  0.62649468     0.14200
H965        H  0.81991761  0.15392550  0.57499892     0.14300
C966        C  0.86069238  0.21034593  0.52944366    -0.24700
H967        H  0.88930309  0.99531529  0.63956858     0.04500
H968        H  0.85525730  0.00122902  0.66886352     0.07700
H969        H  0.88496080  0.03203925  0.69980356     0.07700
H970        H  0.87455508  0.20413764  0.49482382     0.07700
H971        H  0.86524149  0.24896643  0.54848380     0.07700
H972        H  0.83856538  0.21334459  0.51543368     0.04500
C973        C  0.59174596  0.11113736  0.63261567    -0.21300
C974        C  0.59402038  0.15255553  0.59645660    -0.07900
C975        C  0.62143262  0.16635803  0.57827062     0.13000
C976        C  0.64560079  0.14168317  0.60024947    -0.21400
C977        C  0.64332780  0.10418958  0.64030271    -0.07900
C978        C  0.61593738  0.08685501  0.65494975     0.12900
C979        C  0.61177546  0.04232373  0.69372750    -0.24800
H980        H  0.57092179  0.09951451  0.64539744     0.14200
H981        H  0.66642732  0.15378569  0.58792983     0.14300
C982        C  0.62571901  0.20703023  0.53560423    -0.24700
H983        H  0.58934902  0.03050138  0.69597220     0.04500
H984        H  0.61783195  0.05531360  0.73333588     0.07700
H985        H  0.62455680  0.00645545  0.68196483     0.07700
H986        H  0.62003062  0.24780449  0.54975542     0.07700
H987        H  0.61276007  0.19713861  0.50118979     0.07700
H988        H  0.64810614  0.20784963  0.52258809     0.04500
C989        C  0.85765657  0.89978286  0.39772895    -0.21300
C990        C  0.83733225  0.86708563  0.37510422    -0.07900
C991        C  0.84376355  0.81261319  0.36706894     0.13000
C992        C  0.87085214  0.79258514  0.37851530    -0.21400
C993        C  0.89198044  0.82542560  0.39865964    -0.07900
C994        C  0.88484174  0.87947305  0.41033259     0.12900
C995        C  0.90551901  0.91592410  0.43564091    -0.24800
H996        H  0.85278927  0.94210863  0.40265834     0.14200
H997        H  0.87561404  0.75075620  0.37065610     0.14300
C998        C  0.82220807  0.77595714  0.34439120    -0.24700
H999        H  0.89596451  0.95609797  0.44321434     0.04500
H1000       H  0.92415693  0.92086689  0.40986467     0.07700
H1001       H  0.91233314  0.89902352  0.47366391     0.07700
H1002       H  0.81612249  0.78960760  0.30476711     0.07700
H1003       H  0.80314133  0.77615298  0.36979667     0.07700
H1004       H  0.83044689  0.73410785  0.34133861     0.04500
C1005       C  0.61752164  0.90983141  0.33355095    -0.21300
C1006       C  0.64314423  0.89535988  0.35860350    -0.07900
C1007       C  0.64207242  0.86699626  0.40589523     0.13000
C1008       C  0.61589216  0.84878245  0.42363371    -0.21400
C1009       C  0.59077939  0.85853257  0.39544284    -0.07900
C1010       C  0.59138932  0.89164327  0.35140625     0.12900
C1011       C  0.56487064  0.90482349  0.32148807    -0.24800
H1012       H  0.61798333  0.93354376  0.29822459     0.14200
H1013       H  0.61528087  0.82363805  0.45802067     0.14300
C1014       C  0.66842952  0.85302937  0.43597808    -0.24700
H1015       H  0.56911850  0.93096803  0.28748689     0.04500
H1016       H  0.54944612  0.92606239  0.34737625     0.07700
H1017       H  0.55543014  0.86749408  0.30697041     0.07700
H1018       H  0.67879102  0.89024163  0.44835972     0.07700
H1019       H  0.68321261  0.82886279  0.41125428     0.07700
H1020       H  0.66369289  0.82951323  0.47156029     0.04500
C1021       C  0.87359587  0.19957646  0.34458970    -0.21300
C1022       C  0.89286100  0.16790563  0.37352340    -0.07900
C1023       C  0.88368031  0.11916524  0.39495496     0.13000
C1024       C  0.85607157  0.10231554  0.38454808    -0.21400
C1025       C  0.83725002  0.13374692  0.35457423    -0.07900
C1026       C  0.84603187  0.18330098  0.33521364     0.12900
C1027       C  0.82629438  0.21863224  0.30372276    -0.24800
H1028       H  0.88008571  0.23801103  0.32971388     0.14200
H1029       H  0.84958813  0.06322891  0.39770945     0.14300
C1030       C  0.90250942  0.08551506  0.42953485    -0.24700
H1031       H  0.83614170  0.25691543  0.29283698     0.04500
H1032       H  0.80698548  0.22816608  0.32696876     0.07700
H1033       H  0.82020660  0.19797038  0.26737711     0.07700
H1034       H  0.90884447  0.10912991  0.46397938     0.07700
H1035       H  0.92159517  0.07188966  0.40749113     0.07700
H1036       H  0.89155402  0.04971749  0.44403430     0.04500
C1037       C  0.60675372  0.19523253  0.32586162    -0.21300
C1038       C  0.59155304  0.16755831  0.36399570    -0.07900
C1039       C  0.60474930  0.12373197  0.38985922     0.13000
C1040       C  0.63246548  0.10770821  0.37556449    -0.21400
C1041       C  0.64731631  0.13507798  0.33671240    -0.07900
C1042       C  0.63430100  0.17940083  0.31171779     0.12900
C1043       C  0.64967000  0.21042411  0.27036078    -0.24800
H1044       H  0.59714833  0.23040431  0.30777510     0.14200
H1045       H  0.64220600  0.07265465  0.39346459     0.14300
C1046       C  0.59005921  0.09482461  0.43336441    -0.24700
H1047       H  0.63693238  0.24535816  0.25647246     0.04500
H1048       H  0.65445707  0.18457779  0.23617320     0.07700
H1049       H  0.66969675  0.22535779  0.28648760     0.07700
H1050       H  0.57048474  0.07687792  0.41849566     0.07700
H1051       H  0.58456880  0.12317570  0.46534877     0.07700
H1052       H  0.60361695  0.06220492  0.44985089     0.04500
C1053       C  0.80732656  0.70558575  0.07006443    -0.21300
C1054       C  0.81880104  0.67667344  0.11201015    -0.07900
C1055       C  0.82387361  0.70379113  0.15912164     0.13000
C1056       C  0.81804353  0.75925204  0.16269891    -0.21400
C1057       C  0.80798208  0.78895655  0.11964065    -0.07900
C1058       C  0.80218299  0.76122554  0.07285198     0.12900
C1059       C  0.79283391  0.78999954  0.02408713    -0.24800
H1060       H  0.80488924  0.68525053  0.03319214     0.14200
H1061       H  0.82219628  0.77967251  0.19893756     0.14300
C1062       C  0.83642385  0.67439080  0.20505940    -0.24700
H1063       H  0.79051950  0.76165587  0.99151430     0.04500
H1064       H  0.80872426  0.81974792  0.01256201     0.07700
H1065       H  0.77201090  0.81029988  0.02975539     0.07700
H1066       H  0.85758943  0.65742696  0.19466315     0.07700
H1067       H  0.82243674  0.64138756  0.21664021     0.07700
H1068       H  0.83886545  0.70116900  0.23917220     0.04500
C1069       C  0.79622278  0.28246055  0.09078058    -0.21300
C1070       C  0.82021080  0.30067191  0.11658272    -0.07900
C1071       C  0.83506028  0.26457680  0.14979208     0.13000
C1072       C  0.82791745  0.21040008  0.15095867    -0.21400
C1073       C  0.80549955  0.19059058  0.12154136    -0.07900
C1074       C  0.78827681  0.22831956  0.09415638     0.12900
C1075       C  0.76110482  0.21231038  0.07005719    -0.24800
H1076       H  0.78449116  0.30985036  0.06573398     0.14200
H1077       H  0.84052387  0.18307843  0.17461021     0.14300
C1078       C  0.85885745  0.28285771  0.18396176    -0.24700
H1079       H  0.74905291  0.24723494  0.05419634     0.04500
H1080       H  0.74815161  0.19371375  0.10063838     0.07700
H1081       H  0.76504802  0.18308971  0.03844424     0.07700
H1082       H  0.85131548  0.31683127  0.20861566     0.07700
H1083       H  0.87717693  0.29536200  0.16032665     0.07700
H1084       H  0.86659169  0.25043997  0.21024818     0.04500
C1085       C  0.83909597  0.71300930  0.84867597    -0.21300
C1086       C  0.82087419  0.67893789  0.87550767    -0.07900
C1087       C  0.79489973  0.70061448  0.89437208     0.13000
C1088       C  0.78908102  0.75635042  0.88941070    -0.21400
C1089       C  0.80920127  0.79125466  0.86852742    -0.07900
C1090       C  0.83438168  0.76847324  0.84676962     0.12900
C1091       C  0.85770270  0.80193461  0.82450344    -0.24800
H1092       H  0.85880571  0.69654030  0.83326353     0.14200
H1093       H  0.76925556  0.77299594  0.90408381     0.14300
C1094       C  0.77391675  0.66597780  0.92160382    -0.24700
H1095       H  0.87671790  0.77737563  0.81385396     0.04500
H1096       H  0.86434664  0.83170497  0.85381480     0.07700
H1097       H  0.85051830  0.82246539  0.78851220     0.07700
H1098       H  0.78351020  0.64761098  0.95684084     0.07700
H1099       H  0.76712058  0.63397106  0.89482014     0.07700
H1100       H  0.75491322  0.68948145  0.93415578     0.04500
C1101       C  0.81720552  0.26730904  0.93254614    -0.21300
C1102       C  0.81797742  0.30105682  0.88875334    -0.07900
C1103       C  0.81332970  0.27911909  0.83899556     0.13000
C1104       C  0.80809476  0.22400674  0.83427209    -0.21400
C1105       C  0.80884637  0.18990848  0.87798890    -0.07900
C1106       C  0.81392903  0.21193357  0.92755198     0.12900
C1107       C  0.81862272  0.17660571  0.97441372    -0.24800
H1108       H  0.82217889  0.28367080  0.97046764     0.14200
H1109       H  0.80423514  0.20719344  0.79611397     0.14300
C1110       C  0.81508159  0.31342977  0.79094717    -0.24700
H1111       H  0.82405707  0.20011418  0.00945574     0.04500
H1112       H  0.83643107  0.14799929  0.96651823     0.07700
H1113       H  0.79944991  0.15384520  0.98318721     0.07700
H1114       H  0.83651625  0.33012990  0.78741578     0.07700
H1115       H  0.79925318  0.34681279  0.79361133     0.07700
H1116       H  0.81086351  0.29021698  0.75503818     0.04500
C1117       C  0.97200821  0.60796312  0.77345353    -0.21300
C1118       C  0.95110804  0.57954888  0.79959177    -0.07900
C1119       C  0.93103063  0.55175421  0.77010991     0.13000
C1120       C  0.93398193  0.54857011  0.71548500    -0.21400
C1121       C  0.95555928  0.57526236  0.68942484    -0.07900
C1122       C  0.97346001  0.60822987  0.71857929     0.12900
C1123       C  0.99305364  0.64564048  0.69147230    -0.24800
H1124       H  0.98665954  0.63120164  0.79588408     0.14200
H1125       H  0.91893834  0.52655167  0.69286402     0.14300
C1126       C  0.90606338  0.52697296  0.79645188    -0.24700
H1127       H  0.00468075  0.67025569  0.71971958     0.04500
H1128       H  0.98071787  0.67337703  0.66602115     0.07700
H1129       H  0.00831944  0.62243632  0.66714867     0.07700
H1130       H  0.89301252  0.55860025  0.81600387     0.07700
H1131       H  0.91340547  0.49762711  0.82615674     0.07700
H1132       H  0.89237667  0.50656313  0.76816450     0.04500
C1133       C  0.97649701  0.58519503  0.27022615    -0.21300
C1134       C  0.95182106  0.58473256  0.30030365    -0.07900
C1135       C  0.92546410  0.58719037  0.27445354     0.13000
C1136       C  0.92481613  0.58784915  0.21940035    -0.21400
C1137       C  0.94978781  0.58363297  0.18952518    -0.07900
C1138       C  0.97580153  0.58146511  0.21567445     0.12900
C1139       C  0.00305053  0.57435423  0.18658120    -0.24800
H1140       H  0.99666519  0.58737381  0.28966877     0.14200
H1141       H  0.90464171  0.58943149  0.19962037     0.14300
C1142       C  0.89805818  0.58803909  0.30445517    -0.24700
H1143       H  0.02058679  0.56883223  0.21425049     0.04500
H1144       H  0.00655164  0.60956161  0.16124592     0.07700
H1145       H  0.00307044  0.53750488  0.16281778     0.07700
H1146       H  0.89619352  0.62500000  0.32824187     0.07700
H1147       H  0.89723399  0.55250692  0.33031649     0.07700
H1148       H  0.87954784  0.58731828  0.27808088     0.04500
C1149       C  0.91990193  0.39806517  0.77617190    -0.21300
C1150       C  0.94530296  0.38305124  0.80076329    -0.07900
C1151       C  0.96846985  0.36593945  0.77014792     0.13000
C1152       C  0.96730780  0.37225305  0.71571158    -0.21400
C1153       C  0.94268632  0.39206792  0.69127370    -0.07900
C1154       C  0.91819165  0.40180569  0.72161350     0.12900
C1155       C  0.89028513  0.41566974  0.69651207    -0.24800
H1156       H  0.90139044  0.40730732  0.79978099     0.14200
H1157       H  0.98532194  0.35995836  0.69191774     0.14300
C1158       C  0.99305932  0.33678307  0.79489271    -0.24700
H1159       H  0.87336059  0.42289521  0.72597931     0.04500
H1160       H  0.88382385  0.38208855  0.67133586     0.07700
H1161       H  0.89209472  0.45216319  0.67228170     0.07700
H1162       H  0.98559230  0.29960016  0.81354116     0.07700
H1163       H  0.00241618  0.36195764  0.82543599     0.07700
H1164       H  0.00948324  0.32533250  0.76571519     0.04500
C1165       C  0.92364164  0.43281518  0.26981591    -0.21300
C1166       C  0.94130681  0.40029555  0.30048320    -0.07900
C1167       C  0.96018564  0.36307463  0.27606810     0.13000
C1168       C  0.96206223  0.36159697  0.22139698    -0.21400
C1169       C  0.94459511  0.39456131  0.19076038    -0.07900
C1170       C  0.92456987  0.42943197  0.21516075     0.12900
C1171       C  0.90378857  0.46222222  0.18349925    -0.24800
H1172       H  0.90879094  0.46034881  0.28872840     0.14200
H1173       H  0.97698490  0.33418484  0.20244911     0.14300
C1174       C  0.97855073  0.32532610  0.30771876    -0.24700
H1175       H  0.88985708  0.48780287  0.20860308     0.04500
H1176       H  0.89017928  0.43529688  0.16087172     0.07700
H1177       H  0.91518917  0.48841074  0.15612466     0.07700
H1178       H  0.96508923  0.29873713  0.33130407     0.07700
H1179       H  0.99218457  0.34817478  0.33416822     0.07700
H1180       H  0.99245719  0.29977435  0.28253385     0.04500
C1181       C  0.70595732  0.76594237  0.84685603    -0.21300
C1182       C  0.70271154  0.79697103  0.89230551    -0.07900
C1183       C  0.69730781  0.77144856  0.94006324     0.13000
C1184       C  0.69470780  0.71564465  0.94123310    -0.21400
C1185       C  0.69643151  0.68464487  0.89547005    -0.07900
C1186       C  0.70249585  0.71013847  0.84784051     0.12900
C1187       C  0.70374434  0.67884945  0.79780049    -0.24800
H1188       H  0.71010679  0.78573892  0.81011968     0.14200
H1189       H  0.68824989  0.69677294  0.97724929     0.14300
C1190       C  0.69150784  0.80353978  0.98872675    -0.24700
H1191       H  0.70869580  0.70475966  0.76395450     0.04500
H1192       H  0.68307959  0.66027695  0.79056852     0.07700
H1193       H  0.72041032  0.64698842  0.80056338     0.07700
H1194       H  0.67404162  0.83306368  0.98168258     0.07700
H1195       H  0.71074311  0.82493853  0.00019956     0.07700
H1196       H  0.68488326  0.77770831  0.02147656     0.04500
C1197       C  0.71080429  0.28993456  0.90370832    -0.21300
C1198       C  0.69064035  0.31152582  0.86939681    -0.07900
C1199       C  0.67969979  0.27832750  0.83041061     0.13000
C1200       C  0.68548057  0.22314708  0.83192665    -0.21400
C1201       C  0.70284725  0.19994074  0.87051622    -0.07900
C1202       C  0.71747856  0.23471622  0.90410688     0.12900
C1203       C  0.73985600  0.21465297  0.94073614    -0.24800
H1204       H  0.71963707  0.31553101  0.93323280     0.14200
H1205       H  0.67559933  0.19805625  0.80317538     0.14300
C1206       C  0.66120121  0.29981859  0.78745656    -0.24700
H1207       H  0.74996030  0.24791408  0.96163479     0.04500
H1208       H  0.75643425  0.19329410  0.91816128     0.07700
H1209       H  0.73093367  0.18719121  0.96979724     0.07700
H1210       H  0.65747633  0.34370633  0.79024909     0.07700
H1211       H  0.64071234  0.27948597  0.78873920     0.07700
H1212       H  0.67145397  0.29118725  0.74924610     0.04500
C1213       C  0.67926401  0.70254738  0.15701000    -0.21300
C1214       C  0.69419974  0.67231478  0.11954547    -0.07900
C1215       C  0.71675695  0.69628507  0.09287462     0.13000
C1216       C  0.72116376  0.75158450  0.09923617    -0.21400
C1217       C  0.70337216  0.78380102  0.13109493    -0.07900
C1218       C  0.68340326  0.75760884  0.16336347     0.12900
C1219       C  0.66535439  0.78675532  0.20341772    -0.24800
H1220       H  0.66213192  0.68388466  0.17794296     0.14200
H1221       H  0.73747995  0.77024337  0.07661093     0.14300
C1222       C  0.73509518  0.66444543  0.05549324    -0.24700
H1223       H  0.65183986  0.75910019  0.22577120     0.04500
H1224       H  0.65102109  0.81627891  0.18409248     0.07700
H1225       H  0.67902800  0.80694348  0.23196521     0.07700
H1226       H  0.72218850  0.64672683  0.02436416     0.07700
H1227       H  0.74634246  0.63181147  0.07689846     0.07700
H1228       H  0.75103048  0.68980630  0.03647910     0.04500
C1229       C  0.68376313  0.26401585  0.04843675    -0.21300
C1230       C  0.68676849  0.29728396  0.09232004    -0.07900
C1231       C  0.69314765  0.27370698  0.14089210     0.13000
C1232       C  0.69675084  0.21771380  0.14426071    -0.21400
C1233       C  0.69281721  0.18472954  0.10055964    -0.07900
C1234       C  0.68537449  0.20806179  0.05262360     0.12900
C1235       C  0.67595049  0.17393210  0.00785885    -0.24800
H1236       H  0.67710775  0.28180705  0.01181578     0.14200
H1237       H  0.70215961  0.19943788  0.18135549     0.14300
C1238       C  0.69497418  0.30739348  0.18926142    -0.24700
H1239       H  0.67058493  0.19839816  0.97301973     0.04500
H1240       H  0.65679848  0.15214652  0.01970551     0.07700
H1241       H  0.69258749  0.14403449  0.99699233     0.07700
H1242       H  0.67436455  0.32817476  0.19678350     0.07700
H1243       H  0.71155291  0.33755900  0.18402570     0.07700
H1244       H  0.70037581  0.28277506  0.22401355     0.04500
C1245       C  0.57374337  0.54822667  0.76710384    -0.21300
C1246       C  0.56593418  0.59536684  0.79405840    -0.07900
C1247       C  0.56088043  0.64273602  0.76539018     0.13000
C1248       C  0.56116773  0.64079328  0.71061270    -0.21400
C1249       C  0.56672020  0.59271713  0.68363184    -0.07900
C1250       C  0.57522794  0.54710842  0.71217652     0.12900
C1251       C  0.58842685  0.49963887  0.68467941    -0.24800
H1252       H  0.57995844  0.51293660  0.78918024     0.14200
H1253       H  0.55612946  0.67682488  0.68868263     0.14300
C1254       C  0.55459698  0.69511001  0.79249425    -0.24700
H1255       H  0.59367303  0.46663339  0.71219393     0.04500
H1256       H  0.60824378  0.51182583  0.66524331     0.07700
H1257       H  0.57405642  0.48493679  0.65437986     0.07700
H1258       H  0.57284299  0.70602152  0.81693464     0.03500
H1259       H  0.53555866  0.69150379  0.81754023     0.07700
H1260       H  0.05061836  0.72807735  0.76433445     0.04500
C1261       C  0.57474086  0.55865750  0.27130884    -0.21300
C1262       C  0.56222753  0.60280154  0.29688461    -0.07900
C1263       C  0.55427217  0.64873758  0.26732986     0.13000
C1264       C  0.55768609  0.64824475  0.21277326    -0.21400
C1265       C  0.56903174  0.60315233  0.18709727    -0.07900
C1266       C  0.57907767  0.55913213  0.21694762     0.12900
C1267       C  0.59544758  0.51381181  0.19159199    -0.24800
H1268       H  0.58177802  0.52437203  0.29402616     0.14200
H1269       H  0.55038562  0.68221953  0.18988023     0.14300
C1270       C  0.54103340  0.69762741  0.29281182    -0.24700
H1271       H  0.60172175  0.48238734  0.22013454     0.04500
H1272       H  0.61487903  0.52935098  0.17323832     0.07700
H1273       H  0.58260560  0.49541841  0.16104964     0.07700
H1274       H  0.55639675  0.71623171  0.31929814     0.07700
H1275       H  0.52196863  0.68633483  0.31523583     0.07700
H1276       H  0.53454910  0.72831787  0.26367339     0.04500
C1277       C  0.56104302  0.36588598  0.71355840    -0.21300
C1278       C  0.54300201  0.40402789  0.68970440    -0.07900
C1279       C  0.52874961  0.44214948  0.72199136     0.13000
C1280       C  0.53353771  0.44181273  0.77597059    -0.21400
C1281       C  0.55213162  0.40460382  0.79957614    -0.07900
C1282       C  0.56566872  0.36540171  0.76766401     0.12900
C1283       C  0.58469679  0.32225991  0.78988918    -0.24800
H1284       H  0.57180932  0.33595688  0.68967979     0.14200
H1285       H  0.52274931  0.47161069  0.79996545     0.14300
C1286       C  0.00886140  0.48428822  0.70078919    -0.24700
H1287       H  0.59240652  0.29384709  0.75942757     0.04500
H1288       H  0.57304163  0.29896562  0.81948975     0.07700
H1289       H  0.60335660  0.34063867  0.80777633     0.07700
H1290       H  0.99072743  0.46592765  0.68146928     0.07700
H1291       H  0.02013544  0.50984644  0.67290026     0.07700
H1292       H  0.00025806  0.51042314  0.73220856     0.04500
C1293       C  0.56905054  0.37870800  0.27445008    -0.21300
C1294       C  0.54669471  0.40897758  0.29719985    -0.07900
C1295       C  0.52748950  0.43523084  0.26316761     0.13000
C1296       C  0.53075002  0.43045953  0.20889566    -0.21400
C1297       C  0.55347456  0.40202980  0.18612112    -0.07900
C1298       C  0.57288549  0.37520280  0.21981470     0.12900
C1299       C  0.59800275  0.34355152  0.19918145    -0.24800
H1300       H  0.58390257  0.35772672  0.29965686     0.14200
H1301       H  0.51545639  0.45023533  0.18373511     0.14300
C1302       C  0.50349535  0.46899837  0.28328793    -0.24700
H1303       H  0.61061142  0.32513835  0.23109849     0.04500
H1304       H  0.61216292  0.37018645  0.17712865     0.07700
H1305       H  0.59081559  0.31077471  0.17367793     0.07700
H1306       H  0.51199212  0.50300736  0.30527929     0.07700
H1307       H  0.49031711  0.44530873  0.30906397     0.07700
H1308       H  0.48958288  0.48328210  0.25146060     0.04500
loop_ 
_geom_bond_atom_site_label_1 
_geom_bond_atom_site_label_2 
_geom_bond_distance 
_geom_bond_site_symmetry_2 
_ccdc_geom_bond_type 
N1            N2   1.332       .  A
N1            N7   1.320       .  A
N1          Mn30   2.262   1_554  S
N2            C9   1.365       .  A
N3            N5   1.321       .  A
N3            N4   1.315       .  A
N3          Mn19   2.199       .  S
N4           C10   1.345       .  A
N5            N6   1.327       .  A
N5          Mn30   2.235       .  S
N6           C10   1.360       .  A
N7            N8   1.310       .  A
N7          Mn19   2.168   1_554  S
N8            C9   1.338       .  A
C9          C576   1.478       .  S
C10         C544   1.476       .  S
N11          N17   1.311       .  A
N11          N12   1.320       .  A
N11         Mn41   2.194       .  S
N12          C20   1.353       .  A
N13          N14   1.324       .  A
N13          N15   1.311       .  A
N13         Mn19   2.208   1_554  S
N14          C21   1.355       .  A
N15          N16   1.322       .  A
N15         Mn41   2.204   1_554  S
N16          C21   1.357       .  A
N17          N18   1.322       .  A
N17         Mn19   2.202       .  S
N18          C20   1.355       .  A
Mn19        Cl43   2.470       .  S
C20         C627   1.497       .  S
C21         C643   1.505       .  S
N22          N23   1.332       .  A
N22          N28   1.319       .  A
N22         Mn30   2.257       .  S
N23          C31   1.364       .  A
N24          N26   1.319       .  A
N24          N25   1.311       .  A
N24         Mn42   2.185   1_554  S
N25          C32   1.341       .  A
N26          N27   1.333       .  A
N26         Mn30   2.246   1_554  S
N27          C32   1.364       .  A
N28          N29   1.310       .  A
N28         Mn42   2.168       .  S
N29          C31   1.338       .  A
Mn30        Cl43   2.613       .  S
C31         C531   1.478       .  S
C32         C560   1.483       .  S
N33          N34   1.323       .  A
N33          N39   1.313       .  A
N33         Mn41   2.216   1_554  S
N34          C44   1.355       .  A
N35          N36   1.323       .  A
N35          N37   1.313       .  A
N35         Mn42   2.190       .  S
N36          C45   1.350       .  A
N37          N38   1.325       .  A
N37         Mn41   2.212       .  S
N38          C45   1.353       .  A
N39          N40   1.323       .  A
N39         Mn42   2.180   1_554  S
N40          C44   1.346       .  A
Mn41        Cl43   2.582       .  S
Mn42        Cl43   2.473       .  S
C44         C611   1.484       .  S
C45         C592   1.486       .  S
N46          N47   1.324       .  A
N46          N52   1.312       .  A
N46         Mn75   2.207   1_554  S
N47          C54   1.353       .  A
N48          N50   1.312       .  A
N48          N49   1.318       .  A
N48         Mn64   2.166       .  S
N49          C55   1.344       .  A
N50          N51   1.326       .  A
N50         Mn75   2.220       .  S
N51          C55   1.358       .  A
N52          N53   1.321       .  A
N52         Mn64   2.188   1_554  S
N53          C54   1.349       .  A
C54         C515   1.477       .  S
C55         C496   1.479       .  S
N56          N62   1.320       .  A
N56          N57   1.331       .  A
N56         Mn86   2.254       .  S
N57          C65   1.364       .  A
N58          N59   1.309       .  A
N58          N60   1.319       .  A
N58         Mn64   2.162   1_554  S
N59          C66   1.336       .  A
N60          N61   1.336       .  A
N60         Mn86   2.272   1_554  S
N61          C66   1.369       .  A
N62          N63   1.311       .  A
N62         Mn64   2.180       .  S
N63          C65   1.340       .  A
Mn64        Cl88   2.464       .  S
C65         C448   1.478       .  S
C66         C416   1.491       .  S
N67          N68   1.324       .  A
N67          N73   1.312       .  A
N67         Mn75   2.203       .  S
N68          C76   1.353       .  A
N69          N71   1.312       .  A
N69          N70   1.322       .  A
N69         Mn87   2.181   1_554  S
N70          C77   1.349       .  A
N71          N72   1.323       .  A
N71         Mn75   2.215   1_554  S
N72          C77   1.355       .  A
N73          N74   1.323       .  A
N73         Mn87   2.209       .  S
N74          C76   1.353       .  A
Mn75        Cl88   2.603       .  S
C76         C464   1.485       .  S
C77         C483   1.491       .  S
N78          N79   1.331       .  A
N78          N84   1.321       .  A
N78         Mn86   2.256   1_554  S
N79          C89   1.364       .  A
N80          N81   1.307       .  A
N80          N82   1.320       .  A
N80         Mn87   2.165       .  S
N81          C90   1.339       .  A
N82          N83   1.336       .  A
N82         Mn86   2.269       .  S
N83          C90   1.368       .  A
N84          N85   1.313       .  A
N84         Mn87   2.184   1_554  S
N85          C89   1.340       .  A
Mn86        Cl88   2.615       .  S
Mn87        Cl88   2.463       .  S
C89         C400   1.479       .  S
C90         C432   1.495       .  S
N91          N92   1.329       .  A
N91          N97   1.319       .  A
N91        Mn120   2.243   1_545  S
N92          C99   1.362       .  A
N93          N95   1.320       .  A
N93          N94   1.310       .  A
N93        Mn109   2.158       .  S
N94         C100   1.338       .  A
N95          N96   1.331       .  A
N95        Mn120   2.247       .  S
N96         C100   1.362       .  A
N97          N98   1.310       .  A
N97        Mn109   2.165   1_545  S
N98          C99   1.338       .  A
C99         C387   1.471       .  S
C100        C352   1.486       .  S
N101        N107   1.313       .  A
N101        N102   1.330       .  A
N101       Mn131   2.235       .  S
N102        C110   1.360       .  A
N103        N104   1.319       .  A
N103        N105   1.311       .  A
N103       Mn109   2.165   1_545  S
N104        C111   1.345       .  A
N105        N106   1.325       .  A
N105       Mn131   2.212   1_545  S
N106        C111   1.356       .  A
N107        N108   1.318       .  A
N107       Mn109   2.182       .  S
N108        C110   1.347       .  A
Mn109      Cl133   2.474       .  S
C110        C563   1.507       .  S
C111        C579   1.478       .  S
N112        N113   1.329       .  A
N112        N118   1.322       .  A
N112       Mn120   2.245       .  S
N113        C121   1.359       .  A
N114        N116   1.319       .  A
N114        N115   1.308       .  A
N114       Mn132   2.154   1_545  S
N115        C122   1.335       .  A
N116        N117   1.331       .  A
N116       Mn120   2.247   1_545  S
N117        C122   1.362       .  A
N118        N119   1.311       .  A
N118       Mn132   2.170       .  S
N119        C121   1.339       .  A
Mn120      Cl133   2.602       .  S
C121        C336   1.468       .  S
C122        C371   1.467       .  S
N123        N124   1.331       .  A
N123        N129   1.313       .  A
N123       Mn131   2.235   1_545  S
N124        C134   1.362       .  A
N125        N126   1.324       .  A
N125        N127   1.311       .  A
N125       Mn132   2.192       .  S
N126        C135   1.355       .  A
N127        N128   1.321       .  A
N127       Mn131   2.203       .  S
N128        C135   1.352       .  A
N129        N130   1.319       .  A
N129       Mn132   2.193   1_545  S
N130        C134   1.349       .  A
Mn131      Cl133   2.579       .  S
Mn132      Cl133   2.479       .  S
C134        C419   1.510       .  S
C135        C403   1.497       .  S
N136        N137   1.326       .  A
N136        N142   1.314       .  A
N136       Mn165   2.212   1_545  S
N137        C144   1.355       .  A
N138        N140   1.312       .  A
N138        N139   1.321       .  A
N138       Mn154   2.192       .  S
N139        C145   1.350       .  A
N140        N141   1.323       .  A
N140       Mn165   2.194       .  S
N141        C145   1.351       .  A
N142        N143   1.319       .  A
N142       Mn154   2.191   1_545  S
N143        C144   1.351       .  A
C144        C547   1.498       .  S
C145        C528   1.481       .  S
N146        N152   1.320       .  A
N146        N147   1.332       .  A
N146       Mn176   2.261       .  S
N147        C155   1.365       .  A
N148        N149   1.314       .  A
N148        N150   1.323       .  A
N148       Mn154   2.184   1_545  S
N149        C156   1.340       .  A
N150        N151   1.332       .  A
N150       Mn176   2.259   1_545  S
N151        C156   1.363       .  A
N152        N153   1.310       .  A
N152       Mn154   2.158       .  S
N153        C155   1.337       .  A
Mn154      Cl178   2.467       .  S
C155        C288   1.479       .  S
C156        C323   1.492       .  S
N157        N158   1.332       .  A
N157        N163   1.311       .  A
N157       Mn165   2.225       .  S
N158        C166   1.362       .  A
N159        N161   1.310       .  A
N159        N160   1.322       .  A
N159       Mn177   2.177   1_545  S
N160        C167   1.351       .  A
N161        N162   1.322       .  A
N161       Mn165   2.212   1_545  S
N162        C167   1.355       .  A
N163        N164   1.315       .  A
N163       Mn177   2.178       .  S
N164        C166   1.345       .  A
Mn165      Cl178   2.591       .  S
C166        C435   1.501       .  S
C167        C451   1.487       .  S
N168        N169   1.333       .  A
N168        N174   1.322       .  A
N168       Mn176   2.269   1_545  S
N169        C179   1.364       .  A
N170        N171   1.308       .  A
N170        N172   1.318       .  A
N170       Mn177   2.157       .  S
N171        C180   1.336       .  A
N172        N173   1.332       .  A
N172       Mn176   2.250       .  S
N173        C180   1.365       .  A
N174        N175   1.310       .  A
N174       Mn177   2.156   1_545  S
N175        C179   1.336       .  A
Mn176      Cl178   2.613       .  S
Mn177      Cl178   2.464       .  S
C179        C307   1.484       .  S
C180        C272   1.473       .  S
N181        N182   1.330       .  A
N181        N187   1.320       .  A
N181       Mn210   2.252   1_455  S
N182        C189   1.363       .  A
N183        N185   1.322       .  A
N183        N184   1.311       .  A
N183       Mn199   2.167       .  S
N184        C190   1.337       .  A
N185        N186   1.333       .  A
N185       Mn210   2.264   1_455  S
N186        C190   1.365       .  A
N187        N188   1.310       .  A
N187       Mn199   2.159       .  S
N188        C189   1.337       .  A
C189        C384   1.476       .  S
C190        C320   1.491       .  S
N191        N197   1.311       .  A
N191        N192   1.324       .  A
N191       Mn875   2.208   1_455  S
N192        C200   1.354       .  A
N193        N194   1.321       .  A
N193        N195   1.311       .  A
N193       Mn199   2.182       .  S
N194        C201   1.349       .  A
N195        N196   1.327       .  A
N195       Mn875   2.239   1_455  S
N196        C201   1.363       .  A
N197        N198   1.320       .  A
N197       Mn199   2.188       .  S
N198        C200   1.352       .  A
Mn199      Cl877   2.473   1_455  S
C200        C624   1.500       .  S
C201        C640   1.512       .  S
N202        N203   1.332       .  A
N202        N208   1.322       .  A
N202       Mn864   2.253       .  S
N203        C211   1.362       .  A
N204        N206   1.319       .  A
N204        N205   1.308       .  A
N204       Mn222   2.151       .  S
N205        C212   1.335       .  A
N206        N207   1.332       .  A
N206       Mn864   2.258       .  S
N207        C212   1.366       .  A
N208        N209   1.312       .  A
N208       Mn222   2.174       .  S
N209        C211   1.337       .  A
Mn210       N856   2.252       .  S
Mn210       N860   2.258       .  S
Mn210      Cl877   2.611       .  S
C211        C304   1.491       .  S
C212        C368   1.483       .  S
N213        N214   1.322       .  A
N213        N219   1.312       .  A
N213       Mn221   2.209       .  S
N214        C224   1.355       .  A
N215        N216   1.320       .  A
N215        N217   1.313       .  A
N215       Mn222   2.172       .  S
N216        C225   1.346       .  A
N217        N218   1.324       .  A
N217       Mn221   2.223       .  S
N218        C225   1.354       .  A
N219        N220   1.320       .  A
N219       Mn222   2.171       .  S
N220        C224   1.345       .  A
Mn221       N845   2.208       .  S
Mn221       N849   2.239       .  S
Mn221      Cl223   2.578       .  S
Mn222      Cl223   2.471       .  S
Cl223      Mn853   2.473       .  S
Cl223      Mn864   2.611       .  S
C224        C512   1.478       .  S
C225        C499   1.480       .  S
N226        N227   1.328       .  A
N226        N232   1.312       .  A
N226       Mn909   2.235       .  S
N227        C234   1.360       .  A
N228        N230   1.312       .  A
N228        N229   1.318       .  A
N228       Mn244   2.165       .  S
N229        C235   1.344       .  A
N230        N231   1.328       .  A
N230       Mn909   2.240       .  S
N231        C235   1.362       .  A
N232        N233   1.318       .  A
N232       Mn244   2.173       .  S
N233        C234   1.346       .  A
C234        C608   1.486       .  S
C235        C595   1.489       .  S
N236        N242   1.319       .  A
N236        N237   1.333       .  A
N236       Mn920   2.257   1_455  S
N237        C245   1.365       .  A
N238        N239   1.309       .  A
N238        N240   1.321       .  A
N238       Mn244   2.158       .  S
N239        C246   1.336       .  A
N240        N241   1.331       .  A
N240       Mn920   2.250   1_455  S
N241        C246   1.361       .  A
N242        N243   1.309       .  A
N242       Mn244   2.157       .  S
N243        C245   1.335       .  A
Mn244      Cl922   2.475       .  S
C245        C291   1.475       .  S
C246        C355   1.476       .  S
N247        N248   1.327       .  A
N247        N253   1.313       .  A
N247       Mn255   2.235       .  S
N248        C256   1.360       .  A
N249        N251   1.313       .  A
N249        N250   1.321       .  A
N249       Mn267   2.178       .  S
N250        C257   1.348       .  A
N251        N252   1.325       .  A
N251       Mn255   2.232       .  S
N252        C257   1.359       .  A
N253        N254   1.320       .  A
N253       Mn267   2.178       .  S
N254        C256   1.346       .  A
Mn255       N880   2.235       .  S
Mn255       N884   2.240       .  S
Mn255      Cl268   2.575       .  S
C256        C467   1.486       .  S
C257        C480   1.491       .  S
N258        N259   1.330       .  A
N258        N264   1.321       .  A
N258       Mn266   2.246       .  S
N259        C269   1.362       .  A
N260        N261   1.310       .  A
N260        N262   1.321       .  A
N260       Mn267   2.163       .  S
N261        C270   1.336       .  A
N262        N263   1.331       .  A
N262       Mn266   2.252       .  S
N263        C270   1.363       .  A
N264        N265   1.311       .  A
N264       Mn267   2.171       .  S
N265        C269   1.340       .  A
Mn266       N890   2.257       .  S
Mn266       N894   2.250       .  S
Mn266      Cl268   2.611       .  S
Mn267      Cl268   2.483       .  S
Cl268      Mn898   2.476       .  S
C269        C339   1.491       .  S
C270        C275   1.478       .  S
C271        C272   1.403       .  A
C271        C276   1.402       .  A
C271        H278   1.084       .  S
C272        C273   1.413       .  A
C273        C274   1.411       .  A
C273        C280   1.506       .  S
C274        C275   1.406       .  A
C274        H279   1.082       .  S
C275        C276   1.415       .  A
C276        C277   1.510       .  S
C277        H281   1.111       .  S
C277        H282   1.110       .  S
C277        H283   1.109       .  S
C280        H284   1.110       .  S
C280        H285   1.111       .  S
C280        H286   1.111       .  S
C287        C288   1.406       .  A
C287        C292   1.412       .  A
C287        H294   1.085       .  S
C288        C289   1.416       .  A
C289        C290   1.401       .  A
C289        C296   1.511       .  S
C290        C291   1.402       .  A
C290        H295   1.086       .  S
C291        C292   1.415       .  A
C292        C293   1.505       .  S
C293        H297   1.111       .  S
C293        H298   1.110       .  S
C293        H299   1.109       .  S
C296        H300   1.109       .  S
C296        H301   1.110       .  S
C296        H302   1.111       .  S
C303        C304   1.397       .  A
C303        C308   1.406       .  A
C303        H310   1.083       .  S
C304        C305   1.429       .  A
C305        C306   1.408       .  A
C305        C312   1.509       .  S
C306        C307   1.394       .  A
C306        H311   1.083       .  S
C307        C308   1.425       .  A
C308        C309   1.509       .  S
C309        H313   1.110   1_545  S
C309        H314   1.108       .  S
C309        H315   1.111       .  S
C312        H316   1.111       .  S
C312        H317   1.109       .  S
C312        H318   1.111       .  S
C319        C320   1.396       .  A
C319        C324   1.408       .  A
C319        H326   1.084       .  S
C320        C321   1.428       .  A
C321        C322   1.408       .  A
C321        C328   1.510       .  S
C322        C323   1.397       .  A
C322        H327   1.084       .  S
C323        C324   1.426       .  A
C324        C325   1.509       .  S
C325        H329   1.111       .  S
C325        H330   1.109       .  S
C325        H331   1.111       .  S
C328        H332   1.109       .  S
C328        H333   1.110       .  S
C328        H334   1.111       .  S
C335        C336   1.406       .  A
C335        C340   1.412       .  A
C335        H342   1.085       .  S
C336        C337   1.403       .  A
C337        C338   1.398       .  A
C337        C344   1.508       .  S
C338        C339   1.410       .  A
C338        H343   1.083       .  S
C339        C340   1.417       .  A
C340        C341   1.505       .  S
C341        H345   1.108       .  S
C341        H346   1.110       .  S
C341        H347   1.110       .  S
C344        H348   1.110       .  S
C344        H349   1.111       .  S
C344        H350   1.110       .  S
C351        C352   1.416       .  A
C351        C356   1.404       .  A
C351        H358   1.084       .  S
C352        C353   1.407       .  A
C353        C354   1.405       .  A
C353        C360   1.505       .  S
C354        C355   1.412       .  A
C354        H359   1.084       .  S
C355        C356   1.401       .  A
C356        C357   1.505       .  S
C357        H361   1.111       .  S
C357        H362   1.110       .  S
C357        H363   1.110       .  S
C360        H364   1.110       .  S
C360        H365   1.110       .  S
C360        H366   1.111       .  S
C367        C368   1.408       .  A
C367        C372   1.399       .  A
C367        H374   1.085       .  S
C368        C369   1.414       .  A
C369        C370   1.411       .  A
C369        C376   1.504       .  S
C370        C371   1.406       .  A
C370        H375   1.085       .  S
C371        C372   1.406       .  A
C372        C373   1.508       .  S
C373        H377   1.110       .  S
C373        H378   1.110       .  S
C373        H379   1.109       .  S
C376        H380   1.110       .  S
C376        H381   1.110       .  S
C376        H382   1.109       .  S
C383        C384   1.404       .  A
C383        C388   1.400       .  A
C383        H390   1.085       .  S
C384        C385   1.415       .  A
C385        C386   1.410       .  A
C385        C392   1.506       .  S
C386        C387   1.405       .  A
C386        H391   1.084       .  S
C387        C388   1.410       .  A
C388        C389   1.509       .  S
C389        H393   1.109       .  S
C389        H394   1.109       .  S
C389        H395   1.110       .  S
C392        H396   1.110       .  S
C392        H397   1.110       .  S
C392        H398   1.111       .  S
C399        C400   1.401       .  A
C399        C404   1.408       .  A
C399        H406   1.082       .  S
C400        C401   1.411       .  A
C401        C402   1.410       .  A
C401        C408   1.506       .  S
C402        C403   1.410       .  A
C402        H407   1.082       .  S
C403        C404   1.418       .  A
C404        C405   1.507       .  S
C405        H409   1.104   1_554  S
C405        H410   1.110       .  S
C405        H411   1.107       .  S
C408        H412   1.110       .  S
C408        H413   1.110       .  S
C408        H414   1.111       .  S
C415        C416   1.404       .  A
C415        C420   1.417       .  A
C415        H422   1.084       .  S
C416        C417   1.418       .  A
C417        C418   1.405       .  A
C417        C424   1.512       .  S
C418        C419   1.406       .  A
C418        H423   1.084       .  S
C419        C420   1.420       .  A
C420        C421   1.494       .  S
C421        H425   1.110       .  S
C421        H426   1.103       .  S
C421        H427   1.104       .  S
C424        H428   1.110       .  S
C424        H429   1.107       .  S
C424        H430   1.111       .  S
C431        C432   1.405       .  A
C431        C436   1.400       .  A
C431        H438   1.084       .  S
C432        C433   1.415       .  A
C433        C434   1.420       .  A
C433        C440   1.504       .  S
C434        C435   1.412       .  A
C434        H439   1.084       .  S
C435        C436   1.421       .  A
C436        C437   1.512       .  S
C437        H441   1.111       .  S
C437        H442   1.111       .  S
C437        H443   1.108       .  S
C440        H444   1.109       .  S
C440        H445   1.110       .  S
C440        H446   1.109       .  S
C447        C448   1.406       .  A
C447        C452   1.403       .  A
C447        H454   1.085       .  S
C448        C449   1.411       .  A
C449        C450   1.412       .  A
C449        C456   1.505       .  S
C450        C451   1.409       .  A
C450        H455   1.084       .  S
C451        C452   1.411       .  A
C452        C453   1.506       .  S
C453        H457   1.110   1_556  S
C453        H458   1.110       .  S
C453        H459   1.106       .  S
C456        H460   1.111       .  S
C456        H461   1.110       .  S
C456        H462   1.111       .  S
C463        C464   1.401       .  A
C463        C468   1.410       .  A
C463        H470   1.084       .  S
C464        C465   1.415       .  A
C465        C466   1.410       .  A
C465        C472   1.506       .  S
C466        C467   1.401       .  A
C466        H471   1.083       .  S
C467        C468   1.414       .  A
C468        C469   1.502       .  S
C469        H473   1.109       .  S
C469        H474   1.110       .  S
C469        H475   1.106       .  S
C472        H476   1.110       .  S
C472        H477   1.109       .  S
C472        H478   1.109       .  S
C479        C480   1.398       .  A
C479        C484   1.404       .  A
C479        H486   1.083       .  S
C480        C481   1.417       .  A
C481        C482   1.414       .  A
C481        C488   1.505       .  S
C482        C483   1.408       .  A
C482        H487   1.084       .  S
C483        C484   1.406       .  A
C484        C485   1.495       .  S
C485        H489   1.102       .  S
C485        H490   1.109       .  S
C485        H491   1.105       .  S
C488        H492   1.109       .  S
C488        H493   1.110       .  S
C488        H494   1.111       .  S
C495        C496   1.405       .  A
C495        C500   1.406       .  A
C495        H502   1.083       .  S
C496        C497   1.404       .  A
C497        C498   1.407       .  A
C497        C504   1.502       .  S
C498        C499   1.407       .  A
C498        H503   1.085       .  S
C499        C500   1.410       .  A
C500        C501   1.506       .  S
C501        H505   1.111       .  S
C501        H506   1.110       .  S
C501        H507   1.109       .  S
C504        H508   1.110       .  S
C504        H509   1.107       .  S
C504        H510   1.109       .  S
C511        C512   1.398       .  A
C511        C516   1.406       .  A
C511        H518   1.085       .  S
C512        C513   1.418       .  A
C513        C514   1.406       .  A
C513        C520   1.508       .  S
C514        C515   1.399       .  A
C514        H519   1.086       .  S
C515        C516   1.416       .  A
C516        C517   1.507       .  S
C517        H521   1.111       .  S
C517        H522   1.110       .  S
C517        H523   1.108       .  S
C520        H524   1.110       .  S
C520        H525   1.108       .  S
C520        H526   1.111       .  S
C527        C528   1.407       .  A
C527        C532   1.409       .  A
C527        H534   1.084       .  S
C528        C529   1.407       .  A
C529        C530   1.404       .  A
C529        C536   1.505       .  S
C530        C531   1.408       .  A
C530        H535   1.084       .  S
C531        C532   1.410       .  A
C532        C533   1.504       .  S
C533        H537   1.111       .  S
C533        H538   1.110       .  S
C533        H539   1.110       .  S
C536        H540   1.111       .  S
C536        H541   1.109   1_556  S
C536        H542   1.109   1_556  S
C543        C544   1.401       .  A
C543        C548   1.409       .  A
C543        H550   1.084       .  S
C544        C545   1.409       .  A
C545        C546   1.401       .  A
C545        C552   1.503       .  S
C546        C547   1.407       .  A
C546        H551   1.084       .  S
C547        C548   1.420       .  A
C548        C549   1.498       .  S
C549        H553   1.110       .  S
C549        H554   1.101       .  S
C549        H555   1.103       .  S
C552        H556   1.110       .  S
C552        H557   1.107       .  S
C552        H558   1.111       .  S
C559        C560   1.401       .  A
C559        C564   1.405       .  A
C559        H566   1.086       .  S
C560        C561   1.412       .  A
C561        C562   1.413       .  A
C561        C568   1.505       .  S
C562        C563   1.410       .  A
C562        H567   1.079       .  S
C563        C564   1.425       .  A
C564        C565   1.510       .  S
C565        H569   1.111       .  S
C565        H570   1.109       .  S
C565        H571   1.110       .  S
C568        H572   1.108       .  S
C568        H573   1.110       .  S
C568        H574   1.109       .  S
C575        C576   1.410       .  A
C575        C580   1.403       .  A
C575        H582   1.085       .  S
C576        C577   1.410       .  A
C577        C578   1.409       .  A
C577        C584   1.505       .  S
C578        C579   1.409       .  A
C578        H583   1.085       .  S
C579        C580   1.404       .  A
C580        C581   1.508       .  S
C581        H585   1.110   1_554  S
C581        H586   1.111       .  S
C581        H587   1.107   1_554  S
C584        H588   1.111       .  S
C584        H589   1.110       .  S
C584        H590   1.111       .  S
C591        C592   1.407       .  A
C591        C596   1.411       .  A
C591        H598   1.084       .  S
C592        C593   1.410       .  A
C593        C594   1.407       .  A
C593        C600   1.506       .  S
C594        C595   1.406       .  A
C594        H599   1.084       .  S
C595        C596   1.407       .  A
C596        C597   1.502       .  S
C597        H601   1.110       .  S
C597        H602   1.110       .  S
C597        H603   1.105       .  S
C600        H604   1.110       .  S
C600        H605   1.110       .  S
C600       H1260   1.111       .  S
H606       C1254   1.111       .  S
C607        C608   1.402       .  A
C607        C612   1.409       .  A
C607        H614   1.083       .  S
C608        C609   1.421       .  A
C609        C610   1.409       .  A
C609        C616   1.508       .  S
C610        C611   1.400       .  A
C610        H615   1.084       .  S
C611        C612   1.415       .  A
C612        C613   1.504       .  S
C613        H617   1.110       .  S
C613        H618   1.110       .  S
C613        H619   1.102       .  S
C616        H620   1.109       .  S
C616        H621   1.110       .  S
C616        H622   1.110       .  S
C623        C624   1.407       .  A
C623        C628   1.407       .  A
C623        H630   1.083       .  S
C624        C625   1.419       .  A
C625        C626   1.405       .  A
C625       C1286   1.502       .  S
C626        C627   1.405       .  A
C626        H631   1.083       .  S
C627        C628   1.417       .  A
C628        C629   1.503       .  S
C629        H633   1.111       .  S
C629        H634   1.110       .  S
C629        H635   1.108       .  S
C632       C1279   1.501       .  S
C632        H636   1.104       .  S
C632        H637   1.104       .  S
C632        H638   1.108       .  S
C639        C640   1.410       .  A
C639        C644   1.415       .  A
C639        H646   1.084       .  S
C640        C641   1.414       .  A
C641        C642   1.405       .  A
C641        C648   1.489       .  S
C642        C643   1.401       .  A
C642        H647   1.083       .  S
C643        C644   1.422       .  A
C644        C645   1.506       .  S
C645        H649   1.110       .  S
C645        H650   1.110       .  S
C645        H651   1.110       .  S
C648        H652   1.106       .  S
C648        H653   1.092   1_455  S
C648        H654   1.106   1_455  S
N655        N656   1.332       .  A
N655        N661   1.320       .  A
N655       Mn684   2.261   1_554  S
N656        C663   1.365       .  A
N657        N659   1.321       .  A
N657        N658   1.315       .  A
N657       Mn673   2.200       .  S
N658        C664   1.345       .  A
N659        N660   1.328       .  A
N659       Mn684   2.235       .  S
N660        C664   1.360       .  A
N661        N662   1.310       .  A
N661       Mn673   2.167   1_554  S
N662        C663   1.337       .  A
C663       C1230   1.478       .  S
C664       C1198   1.477       .  S
N665        N671   1.311       .  A
N665        N666   1.320       .  A
N665       Mn695   2.194       .  S
N666        C674   1.353       .  A
N667        N668   1.324       .  A
N667        N669   1.311       .  A
N667       Mn673   2.208   1_554  S
N668        C675   1.355       .  A
N669        N670   1.322       .  A
N669       Mn695   2.205   1_554  S
N670        C675   1.357       .  A
N671        N672   1.322       .  A
N671       Mn673   2.201       .  S
N672        C674   1.354       .  A
Mn673      Cl697   2.470       .  S
C674       C1281   1.497       .  S
C675       C1297   1.505       .  S
N676        N677   1.332       .  A
N676        N682   1.319       .  A
N676       Mn684   2.257       .  S
N677        C685   1.364       .  A
N678        N680   1.319       .  A
N678        N679   1.311       .  A
N678       Mn696   2.184   1_554  S
N679        C686   1.341       .  A
N680        N681   1.333       .  A
N680       Mn684   2.246   1_554  S
N681        C686   1.364       .  A
N682        N683   1.310       .  A
N682       Mn696   2.168       .  S
N683        C685   1.338       .  A
Mn684      Cl697   2.613       .  S
C685       C1185   1.478       .  S
C686       C1214   1.483       .  S
N687        N688   1.323       .  A
N687        N693   1.313       .  A
N687       Mn695   2.216   1_554  S
N688        C698   1.355       .  A
N689        N690   1.323       .  A
N689        N691   1.313       .  A
N689       Mn696   2.191       .  S
N690        C699   1.350       .  A
N691        N692   1.325       .  A
N691       Mn695   2.213       .  S
N692        C699   1.353       .  A
N693        N694   1.323       .  A
N693       Mn696   2.181   1_554  S
N694        C698   1.347       .  A
Mn695      Cl697   2.582       .  S
Mn696      Cl697   2.473       .  S
C698       C1265   1.484       .  S
C699       C1246   1.486       .  S
N700        N701   1.324       .  A
N700        N706   1.313       .  A
N700       Mn729   2.207   1_554  S
N701        C708   1.353       .  A
N702        N704   1.312       .  A
N702        N703   1.318       .  A
N702       Mn718   2.166       .  S
N703        C709   1.344       .  A
N704        N705   1.326       .  A
N704       Mn729   2.221       .  S
N705        C709   1.358       .  A
N706        N707   1.321       .  A
N706       Mn718   2.188   1_554  S
N707        C708   1.349       .  A
C708       C1169   1.477       .  S
C709       C1150   1.479       .  S
N710        N716   1.320       .  A
N710        N711   1.331       .  A
N710       Mn740   2.255       .  S
N711        C719   1.364       .  A
N712        N713   1.309       .  A
N712        N714   1.319       .  A
N712       Mn718   2.162   1_554  S
N713        C720   1.336       .  A
N714        N715   1.336       .  A
N714       Mn740   2.271   1_554  S
N715        C720   1.369       .  A
N716        N717   1.311       .  A
N716       Mn718   2.180       .  S
N717        C719   1.340       .  A
Mn718      Cl742   2.464       .  S
C719       C1102   1.478       .  S
C720       C1070   1.491       .  S
N721        N722   1.324       .  A
N721        N727   1.312       .  A
N721       Mn729   2.203       .  S
N722        C730   1.353       .  A
N723        N725   1.312       .  A
N723        N724   1.322       .  A
N723       Mn741   2.181   1_554  S
N724        C731   1.349       .  A
N725        N726   1.323       .  A
N725       Mn729   2.215   1_554  S
N726        C731   1.356       .  A
N727        N728   1.323       .  A
N727       Mn741   2.210       .  S
N728        C730   1.353       .  A
Mn729      Cl742   2.603       .  S
C730       C1118   1.485       .  S
C731       C1137   1.491       .  S
N732        N733   1.331       .  A
N732        N738   1.321       .  A
N732       Mn740   2.257   1_554  S
N733        C743   1.364       .  A
N734        N735   1.307       .  A
N734        N736   1.320       .  A
N734       Mn741   2.166       .  S
N735        C744   1.339       .  A
N736        N737   1.336       .  A
N736       Mn740   2.268       .  S
N737        C744   1.367       .  A
N738        N739   1.313       .  A
N738       Mn741   2.184   1_554  S
N739        C743   1.340       .  A
Mn740      Cl742   2.615       .  S
Mn741      Cl742   2.463       .  S
C743       C1054   1.480       .  S
C744       C1086   1.495       .  S
N745        N746   1.329       .  A
N745        N751   1.319       .  A
N745       Mn774   2.244   1_545  S
N746        C753   1.362       .  A
N747        N749   1.320       .  A
N747        N748   1.310       .  A
N747       Mn763   2.158       .  S
N748        C754   1.338       .  A
N749        N750   1.331       .  A
N749       Mn774   2.248       .  S
N750        C754   1.362       .  A
N751        N752   1.310       .  A
N751       Mn763   2.165   1_545  S
N752        C753   1.338       .  A
C753       C1041   1.471       .  S
C754       C1006   1.486       .  S
N755        N761   1.313       .  A
N755        N756   1.330       .  A
N755       Mn785   2.235       .  S
N756        C764   1.360       .  A
N757        N758   1.319       .  A
N757        N759   1.311       .  A
N757       Mn763   2.166   1_545  S
N758        C765   1.345       .  A
N759        N760   1.324       .  A
N759       Mn785   2.211   1_545  S
N760        C765   1.356       .  A
N761        N762   1.318       .  A
N761       Mn763   2.182       .  S
N762        C764   1.347       .  A
Mn763      Cl787   2.474       .  S
C764       C1217   1.507       .  S
C765       C1233   1.478       .  S
N766        N767   1.329       .  A
N766        N772   1.322       .  A
N766       Mn774   2.245       .  S
N767        C775   1.359       .  A
N768        N770   1.319       .  A
N768        N769   1.308       .  A
N768       Mn786   2.154   1_545  S
N769        C776   1.335       .  A
N770        N771   1.331       .  A
N770       Mn774   2.247   1_545  S
N771        C776   1.362       .  A
N772        N773   1.311       .  A
N772       Mn786   2.171       .  S
N773        C775   1.339       .  A
Mn774      Cl787   2.602       .  S
C775        C990   1.468       .  S
C776       C1025   1.467       .  S
N777        N778   1.331       .  A
N777        N783   1.313       .  A
N777       Mn785   2.235   1_545  S
N778        C788   1.362       .  A
N779        N780   1.324       .  A
N779        N781   1.311       .  A
N779       Mn786   2.193       .  S
N780        C789   1.355       .  A
N781        N782   1.321       .  A
N781       Mn785   2.203       .  S
N782        C789   1.352       .  A
N783        N784   1.319       .  A
N783       Mn786   2.193   1_545  S
N784        C788   1.349       .  A
Mn785      Cl787   2.579       .  S
Mn786      Cl787   2.479       .  S
C788       C1073   1.510       .  S
C789       C1057   1.497       .  S
N790        N791   1.326       .  A
N790        N796   1.314       .  A
N790       Mn819   2.213   1_545  S
N791        C798   1.355       .  A
N792        N794   1.312       .  A
N792        N793   1.321       .  A
N792       Mn808   2.191       .  S
N793        C799   1.349       .  A
N794        N795   1.323       .  A
N794       Mn819   2.194       .  S
N795        C799   1.351       .  A
N796        N797   1.319       .  A
N796       Mn808   2.191   1_545  S
N797        C798   1.350       .  A
C798       C1201   1.499       .  S
C799       C1182   1.480       .  S
N800        N806   1.320       .  A
N800        N801   1.332       .  A
N800       Mn830   2.261       .  S
N801        C809   1.365       .  A
N802        N803   1.314       .  A
N802        N804   1.323       .  A
N802       Mn808   2.183   1_545  S
N803        C810   1.340       .  A
N804        N805   1.332       .  A
N804       Mn830   2.259   1_545  S
N805        C810   1.363       .  A
N806        N807   1.310       .  A
N806       Mn808   2.158       .  S
N807        C809   1.337       .  A
Mn808      Cl832   2.467       .  S
C809        C942   1.479       .  S
C810        C977   1.492       .  S
N811        N812   1.332       .  A
N811        N817   1.311       .  A
N811       Mn819   2.225       .  S
N812        C820   1.362       .  A
N813        N815   1.310       .  A
N813        N814   1.322       .  A
N813       Mn831   2.178   1_545  S
N814        C821   1.351       .  A
N815        N816   1.322       .  A
N815       Mn819   2.211   1_545  S
N816        C821   1.355       .  A
N817        N818   1.315       .  A
N817       Mn831   2.178       .  S
N818        C820   1.344       .  A
Mn819      Cl832   2.591       .  S
C820       C1089   1.501       .  S
C821       C1105   1.487       .  S
N822        N823   1.333       .  A
N822        N828   1.322       .  A
N822       Mn830   2.269   1_545  S
N823        C833   1.364       .  A
N824        N825   1.308       .  A
N824        N826   1.318       .  A
N824       Mn831   2.158       .  S
N825        C834   1.336       .  A
N826        N827   1.332       .  A
N826       Mn830   2.250       .  S
N827        C834   1.365       .  A
N828        N829   1.310       .  A
N828       Mn831   2.156   1_545  S
N829        C833   1.335       .  A
Mn830      Cl832   2.613       .  S
Mn831      Cl832   2.464       .  S
C833        C961   1.483       .  S
C834        C926   1.473       .  S
N835        N836   1.330       .  A
N835        N841   1.320       .  A
N835       Mn864   2.252       .  S
N836        C843   1.363       .  A
N837        N839   1.322       .  A
N837        N838   1.311       .  A
N837       Mn853   2.167       .  S
N838        C844   1.337       .  A
N839        N840   1.333       .  A
N839       Mn864   2.264       .  S
N840        C844   1.365       .  A
N841        N842   1.310       .  A
N841       Mn853   2.159       .  S
N842        C843   1.337       .  A
C843       C1038   1.476       .  S
C844        C974   1.491       .  S
N845        N851   1.311       .  A
N845        N846   1.324       .  A
N846        C854   1.354       .  A
N847        N848   1.321       .  A
N847        N849   1.311       .  A
N847       Mn853   2.182       .  S
N848        C855   1.349       .  A
N849        N850   1.327       .  A
N850        C855   1.363       .  A
N851        N852   1.320       .  A
N851       Mn853   2.188       .  S
N852        C854   1.352       .  A
C854       C1278   1.500       .  S
C855       C1294   1.512       .  S
N856        N857   1.332       .  A
N856        N862   1.322       .  A
N857        C865   1.362       .  A
N858        N860   1.319       .  A
N858        N859   1.308       .  A
N858       Mn876   2.151       .  S
N859        C866   1.335       .  A
N860        N861   1.332       .  A
N861        C866   1.366       .  A
N862        N863   1.312       .  A
N862       Mn876   2.173       .  S
N863        C865   1.337       .  A
C865        C958   1.491       .  S
C866       C1022   1.483       .  S
N867        N868   1.322       .  A
N867        N873   1.312       .  A
N867       Mn875   2.209       .  S
N868        C878   1.355       .  A
N869        N870   1.320       .  A
N869        N871   1.313       .  A
N869       Mn876   2.172       .  S
N870        C879   1.346       .  A
N871        N872   1.324       .  A
N871       Mn875   2.224       .  S
N872        C879   1.354       .  A
N873        N874   1.320       .  A
N873       Mn876   2.171       .  S
N874        C878   1.345       .  A
Mn875      Cl877   2.578       .  S
Mn876      Cl877   2.470       .  S
C878       C1166   1.478       .  S
C879       C1153   1.480       .  S
N880        N881   1.328       .  A
N880        N886   1.312       .  A
N881        C888   1.360       .  A
N882        N884   1.312       .  A
N882        N883   1.318       .  A
N882       Mn898   2.164       .  S
N883        C889   1.344       .  A
N884        N885   1.328       .  A
N885        C889   1.362       .  A
N886        N887   1.318       .  A
N886       Mn898   2.173       .  S
N887        C888   1.346       .  A
C888       C1262   1.486       .  S
C889       C1249   1.489       .  S
N890        N896   1.319       .  A
N890        N891   1.333       .  A
N891        C899   1.365       .  A
N892        N893   1.309       .  A
N892        N894   1.321       .  A
N892       Mn898   2.158       .  S
N893        C900   1.336       .  A
N894        N895   1.331       .  A
N895        C900   1.361       .  A
N896        N897   1.309       .  A
N896       Mn898   2.158       .  S
N897        C899   1.335       .  A
C899        C945   1.476       .  S
C900       C1009   1.476       .  S
N901        N902   1.327       .  A
N901        N907   1.313       .  A
N901       Mn909   2.235   1_655  S
N902        C910   1.360       .  A
N903        N905   1.313       .  A
N903        N904   1.321       .  A
N903       Mn921   2.177       .  S
N904        C911   1.348       .  A
N905        N906   1.325       .  A
N905       Mn909   2.233   1_655  S
N906        C911   1.359       .  A
N907        N908   1.320       .  A
N907       Mn921   2.178       .  S
N908        C910   1.346       .  A
Mn909      Cl922   2.576       .  S
C910       C1121   1.486       .  S
C911       C1134   1.491       .  S
N912        N913   1.330       .  A
N912        N918   1.321       .  A
N912       Mn920   2.247       .  S
N913        C923   1.362       .  A
N914        N915   1.310       .  A
N914        N916   1.321       .  A
N914       Mn921   2.163       .  S
N915        C924   1.337       .  A
N916        N917   1.331       .  A
N916       Mn920   2.252       .  S
N917        C924   1.363       .  A
N918        N919   1.311       .  A
N918       Mn921   2.172       .  S
N919        C923   1.340       .  A
Mn920      Cl922   2.612   1_655  S
Mn921      Cl922   2.483   1_655  S
C923        C993   1.492       .  S
C924        C929   1.478       .  S
C925        C926   1.403       .  A
C925        C930   1.401       .  A
C925        H932   1.084       .  S
C926        C927   1.413       .  A
C927        C928   1.411       .  A
C927        C934   1.506       .  S
C928        C929   1.406       .  A
C928        H933   1.082       .  S
C929        C930   1.415       .  A
C930        C931   1.510       .  S
C931        H935   1.111       .  S
C931        H936   1.110       .  S
C931        H937   1.109       .  S
C934        H938   1.110       .  S
C934        H939   1.111       .  S
C934        H940   1.111       .  S
C941        C942   1.406       .  A
C941        C946   1.412       .  A
C941        H948   1.085       .  S
C942        C943   1.416       .  A
C943        C944   1.401       .  A
C943        C950   1.511       .  S
C944        C945   1.402       .  A
C944        H949   1.086       .  S
C945        C946   1.415       .  A
C946        C947   1.505       .  S
C947        H951   1.111       .  S
C947        H952   1.110       .  S
C947        H953   1.109       .  S
C950        H954   1.109       .  S
C950        H955   1.110       .  S
C950        H956   1.111       .  S
C957        C958   1.397       .  A
C957        C962   1.405       .  A
C957        H964   1.083       .  S
C958        C959   1.429       .  A
C959        C960   1.408       .  A
C959        C966   1.509       .  S
C960        C961   1.394       .  A
C960        H965   1.083       .  S
C961        C962   1.425       .  A
C962        C963   1.509       .  S
C963        H967   1.110   1_545  S
C963        H968   1.108       .  S
C963        H969   1.111       .  S
C966        H970   1.111       .  S
C966        H971   1.109       .  S
C966        H972   1.111       .  S
C973        C974   1.396       .  A
C973        C978   1.408       .  A
C973        H980   1.084       .  S
C974        C975   1.428       .  A
C975        C976   1.408       .  A
C975        C982   1.510       .  S
C976        C977   1.397       .  A
C976        H981   1.084       .  S
C977        C978   1.426       .  A
C978        C979   1.509       .  S
C979        H983   1.111       .  S
C979        H984   1.109       .  S
C979        H985   1.111       .  S
C982        H986   1.109       .  S
C982        H987   1.110       .  S
C982        H988   1.111       .  S
C989        C990   1.406       .  A
C989        C994   1.412       .  A
C989        H996   1.085       .  S
C990        C991   1.403       .  A
C991        C992   1.399       .  A
C991        C998   1.508       .  S
C992        C993   1.411       .  A
C992        H997   1.083       .  S
C993        C994   1.417       .  A
C994        C995   1.505       .  S
C995        H999   1.108       .  S
C995       H1000   1.110       .  S
C995       H1001   1.110       .  S
C998       H1002   1.110       .  S
C998       H1003   1.111       .  S
C998       H1004   1.110       .  S
C1005      C1006   1.416       .  A
C1005      C1010   1.404       .  A
C1005      H1012   1.084       .  S
C1006      C1007   1.407       .  A
C1007      C1008   1.405       .  A
C1007      C1014   1.505       .  S
C1008      C1009   1.412       .  A
C1008      H1013   1.084       .  S
C1009      C1010   1.401       .  A
C1010      C1011   1.505       .  S
C1011      H1015   1.111       .  S
C1011      H1016   1.110       .  S
C1011      H1017   1.110       .  S
C1014      H1018   1.110       .  S
C1014      H1019   1.110       .  S
C1014      H1020   1.111       .  S
C1021      C1022   1.408       .  A
C1021      C1026   1.399       .  A
C1021      H1028   1.085       .  S
C1022      C1023   1.414       .  A
C1023      C1024   1.411       .  A
C1023      C1030   1.504       .  S
C1024      C1025   1.406       .  A
C1024      H1029   1.085       .  S
C1025      C1026   1.406       .  A
C1026      C1027   1.508       .  S
C1027      H1031   1.110       .  S
C1027      H1032   1.110       .  S
C1027      H1033   1.109       .  S
C1030      H1034   1.110       .  S
C1030      H1035   1.110       .  S
C1030      H1036   1.109       .  S
C1037      C1038   1.404       .  A
C1037      C1042   1.400       .  A
C1037      H1044   1.085       .  S
C1038      C1039   1.415       .  A
C1039      C1040   1.410       .  A
C1039      C1046   1.506       .  S
C1040      C1041   1.405       .  A
C1040      H1045   1.084       .  S
C1041      C1042   1.411       .  A
C1042      C1043   1.509       .  S
C1043      H1047   1.109       .  S
C1043      H1048   1.109       .  S
C1043      H1049   1.110       .  S
C1046      H1050   1.110       .  S
C1046      H1051   1.110       .  S
C1046      H1052   1.111       .  S
C1053      C1054   1.401       .  A
C1053      C1058   1.408       .  A
C1053      H1060   1.083       .  S
C1054      C1055   1.411       .  A
C1055      C1056   1.410       .  A
C1055      C1062   1.506       .  S
C1056      C1057   1.410       .  A
C1056      H1061   1.083       .  S
C1057      C1058   1.418       .  A
C1058      C1059   1.507       .  S
C1059      H1063   1.104   1_554  S
C1059      H1064   1.110       .  S
C1059      H1065   1.107       .  S
C1062      H1066   1.110       .  S
C1062      H1067   1.110       .  S
C1062      H1068   1.111       .  S
C1069      C1070   1.404       .  A
C1069      C1074   1.417       .  A
C1069      H1076   1.084       .  S
C1070      C1071   1.418       .  A
C1071      C1072   1.405       .  A
C1071      C1078   1.512       .  S
C1072      C1073   1.407       .  A
C1072      H1077   1.084       .  S
C1073      C1074   1.420       .  A
C1074      C1075   1.495       .  S
C1075      H1079   1.110       .  S
C1075      H1080   1.103       .  S
C1075      H1081   1.104       .  S
C1078      H1082   1.110       .  S
C1078      H1083   1.107       .  S
C1078      H1084   1.111       .  S
C1085      C1086   1.405       .  A
C1085      C1090   1.400       .  A
C1085      H1092   1.084       .  S
C1086      C1087   1.415       .  A
C1087      C1088   1.420       .  A
C1087      C1094   1.504       .  S
C1088      C1089   1.412       .  A
C1088      H1093   1.083       .  S
C1089      C1090   1.421       .  A
C1090      C1091   1.512       .  S
C1091      H1095   1.111       .  S
C1091      H1096   1.111       .  S
C1091      H1097   1.108       .  S
C1094      H1098   1.109       .  S
C1094      H1099   1.110       .  S
C1094      H1100   1.109       .  S
C1101      C1102   1.406       .  A
C1101      C1106   1.403       .  A
C1101      H1108   1.085       .  S
C1102      C1103   1.411       .  A
C1103      C1104   1.412       .  A
C1103      C1110   1.505       .  S
C1104      C1105   1.409       .  A
C1104      H1109   1.084       .  S
C1105      C1106   1.411       .  A
C1106      C1107   1.506       .  S
C1107      H1111   1.110   1_556  S
C1107      H1112   1.110       .  S
C1107      H1113   1.106       .  S
C1110      H1114   1.111       .  S
C1110      H1115   1.110       .  S
C1110      H1116   1.111       .  S
C1117      C1118   1.401       .  A
C1117      C1122   1.410       .  A
C1117      H1124   1.084       .  S
C1118      C1119   1.415       .  A
C1119      C1120   1.410       .  A
C1119      C1126   1.506       .  S
C1120      C1121   1.401       .  A
C1120      H1125   1.083       .  S
C1121      C1122   1.414       .  A
C1122      C1123   1.502       .  S
C1123      H1127   1.109   1_655  S
C1123      H1128   1.110       .  S
C1123      H1129   1.106   1_655  S
C1126      H1130   1.110       .  S
C1126      H1131   1.109       .  S
C1126      H1132   1.109       .  S
C1133      C1134   1.397       .  A
C1133      C1138   1.404       .  A
C1133      H1140   1.083       .  S
C1134      C1135   1.417       .  A
C1135      C1136   1.414       .  A
C1135      C1142   1.505       .  S
C1136      C1137   1.408       .  A
C1136      H1141   1.084       .  S
C1137      C1138   1.406       .  A
C1138      C1139   1.494   1_655  S
C1139      H1143   1.102       .  S
C1139      H1144   1.109       .  S
C1139      H1145   1.105       .  S
C1142      H1146   1.109       .  S
C1142      H1147   1.110       .  S
C1142      H1148   1.111       .  S
C1149      C1150   1.405       .  A
C1149      C1154   1.406       .  A
C1149      H1156   1.083       .  S
C1150      C1151   1.404       .  A
C1151      C1152   1.407       .  A
C1151      C1158   1.503       .  S
C1152      C1153   1.407       .  A
C1152      H1157   1.085       .  S
C1153      C1154   1.410       .  A
C1154      C1155   1.506       .  S
C1155      H1159   1.111       .  S
C1155      H1160   1.110       .  S
C1155      H1161   1.109       .  S
C1158      H1162   1.110       .  S
C1158      H1163   1.107   1_655  S
C1158      H1164   1.109   1_655  S
C1165      C1166   1.398       .  A
C1165      C1170   1.406       .  A
C1165      H1172   1.085       .  S
C1166      C1167   1.418       .  A
C1167      C1168   1.406       .  A
C1167      C1174   1.508       .  S
C1168      C1169   1.398       .  A
C1168      H1173   1.086       .  S
C1169      C1170   1.416       .  A
C1170      C1171   1.507       .  S
C1171      H1175   1.111       .  S
C1171      H1176   1.110       .  S
C1171      H1177   1.108       .  S
C1174      H1178   1.110       .  S
C1174      H1179   1.108       .  S
C1174      H1180   1.111       .  S
C1181      C1182   1.407       .  A
C1181      C1186   1.409       .  A
C1181      H1188   1.084       .  S
C1182      C1183   1.407       .  A
C1183      C1184   1.404       .  A
C1183      C1190   1.505       .  S
C1184      C1185   1.408       .  A
C1184      H1189   1.084       .  S
C1185      C1186   1.410       .  A
C1186      C1187   1.504       .  S
C1187      H1191   1.111       .  S
C1187      H1192   1.110       .  S
C1187      H1193   1.110       .  S
C1190      H1194   1.111       .  S
C1190      H1195   1.109   1_556  S
C1190      H1196   1.109   1_556  S
C1197      C1198   1.401       .  A
C1197      C1202   1.409       .  A
C1197      H1204   1.084       .  S
C1198      C1199   1.409       .  A
C1199      C1200   1.401       .  A
C1199      C1206   1.503       .  S
C1200      C1201   1.407       .  A
C1200      H1205   1.084       .  S
C1201      C1202   1.420       .  A
C1202      C1203   1.498       .  S
C1203      H1207   1.110       .  S
C1203      H1208   1.101       .  S
C1203      H1209   1.103       .  S
C1206      H1210   1.110       .  S
C1206      H1211   1.107       .  S
C1206      H1212   1.111       .  S
C1213      C1214   1.401       .  A
C1213      C1218   1.405       .  A
C1213      H1220   1.086       .  S
C1214      C1215   1.412       .  A
C1215      C1216   1.413       .  A
C1215      C1222   1.505       .  S
C1216      C1217   1.410       .  A
C1216      H1221   1.079       .  S
C1217      C1218   1.425       .  A
C1218      C1219   1.510       .  S
C1219      H1223   1.111       .  S
C1219      H1224   1.109       .  S
C1219      H1225   1.110       .  S
C1222      H1226   1.108       .  S
C1222      H1227   1.110       .  S
C1222      H1228   1.109       .  S
C1229      C1230   1.410       .  A
C1229      C1234   1.404       .  A
C1229      H1236   1.085       .  S
C1230      C1231   1.410       .  A
C1231      C1232   1.409       .  A
C1231      C1238   1.505       .  S
C1232      C1233   1.408       .  A
C1232      H1237   1.085       .  S
C1233      C1234   1.404       .  A
C1234      C1235   1.508       .  S
C1235      H1239   1.110   1_554  S
C1235      H1240   1.111       .  S
C1235      H1241   1.107   1_554  S
C1238      H1242   1.111       .  S
C1238      H1243   1.110       .  S
C1238      H1244   1.111       .  S
C1245      C1246   1.408       .  A
C1245      C1250   1.411       .  A
C1245      H1252   1.084       .  S
C1246      C1247   1.410       .  A
C1247      C1248   1.407       .  A
C1247      C1254   1.506       .  S
C1248      C1249   1.406       .  A
C1248      H1253   1.084       .  S
C1249      C1250   1.407       .  A
C1250      C1251   1.502       .  S
C1251      H1255   1.110       .  S
C1251      H1256   1.110       .  S
C1251      H1257   1.105       .  S
C1254      H1258   1.110       .  S
C1254      H1259   1.110       .  S
C1261      C1262   1.402       .  A
C1261      C1266   1.409       .  A
C1261      H1268   1.083       .  S
C1262      C1263   1.421       .  A
C1263      C1264   1.409       .  A
C1263      C1270   1.508       .  S
C1264      C1265   1.400       .  A
C1264      H1269   1.083       .  S
C1265      C1266   1.415       .  A
C1266      C1267   1.504       .  S
C1267      H1271   1.110       .  S
C1267      H1272   1.110       .  S
C1267      H1273   1.102       .  S
C1270      H1274   1.109       .  S
C1270      H1275   1.111       .  S
C1270      H1276   1.110       .  S
C1277      C1278   1.407       .  A
C1277      C1282   1.407       .  A
C1277      H1284   1.083       .  S
C1278      C1279   1.419       .  A
C1279      C1280   1.405       .  A
C1280      C1281   1.405       .  A
C1280      H1285   1.083       .  S
C1281      C1282   1.417       .  A
C1282      C1283   1.503       .  S
C1283      H1287   1.111       .  S
C1283      H1288   1.110       .  S
C1283      H1289   1.108       .  S
C1286      H1290   1.104   1_455  S
C1286      H1291   1.104       .  S
C1286      H1292   1.108       .  S
C1293      C1294   1.410       .  A
C1293      C1298   1.415       .  A
C1293      H1300   1.084       .  S
C1294      C1295   1.414       .  A
C1295      C1296   1.405       .  A
C1295      C1302   1.489       .  S
C1296      C1297   1.400       .  A
C1296      H1301   1.083       .  S
C1297      C1298   1.422       .  A
C1298      C1299   1.506       .  S
C1299      H1303   1.110       .  S
C1299      H1304   1.110       .  S
C1299      H1305   1.110       .  S
C1302      H1306   1.106       .  S
C1302      H1307   1.092       .  S
C1302      H1308   1.106       .  S
