geometry optimzed in LAMMPS
_audit_creation_date              2020-11-30 
_audit_creation_method            'lammps2cif' 
_symmetry_space_group_name_H-M    'P1' 
_symmetry_Int_Tables_number       1 
_symmetry_cell_setting            triclinic 
loop_ 
_symmetry_equiv_pos_as_xyz 
  x,y,z 
_cell_length_a                    86.94304206 
_cell_length_b                    86.93143334045062 
_cell_length_c                    86.95095953040511 
_cell_angle_alpha                 89.99017976416233 
_cell_angle_beta                  89.99462273016674 
_cell_angle_gamma                 90.01306612245317 
loop_ 
_atom_site_label 
_atom_site_type_symbol 
_atom_site_fract_x 
_atom_site_fract_y 
_atom_site_fract_z 
_atom_site_charge 
O1          O  0.48398103  0.09740160  0.48178241    -0.71400
O2          O  0.51585686  0.09728513  0.51555186    -0.72300
O3          O  0.51677339  0.09686299  0.48271106    -0.61000
O4          O  0.48311017  0.09793425  0.51447644    -0.69400
O5          O  0.48270008  0.07237018  0.51477820    -0.68900
O6          O  0.51629820  0.07130597  0.48308183    -0.60200
O7          O  0.51530185  0.07173135  0.51578189    -0.72700
O8          O  0.48364359  0.07184045  0.48223393    -0.71500
Cu9        Cu  0.49996411  0.09828830  0.49860591     1.04600
Cu10       Cu  0.49948395  0.07093059  0.49897177     1.04300
C11         C  0.47876431  0.08458331  0.47683737     0.94800
C12         C  0.52048086  0.08443726  0.52099935     0.94000
C13         C  0.52176632  0.08391516  0.47790179     0.86100
C14         C  0.47764742  0.08529155  0.51957726     0.92400
O15         O  0.17127962  0.44128124  0.51700852    -0.71400
O16         O  0.17163426  0.40853606  0.48417765    -0.72300
O17         O  0.17158056  0.44127700  0.48426075    -0.61000
O18         O  0.17145445  0.40854320  0.51695168    -0.69400
O19         O  0.14588878  0.40846984  0.51676298    -0.68900
O20         O  0.14601403  0.44111424  0.48412121    -0.60200
O21         O  0.14606891  0.40852547  0.48412786    -0.72700
O22         O  0.14571553  0.44107661  0.51672256    -0.71500
Cu23       Cu  0.17240756  0.42490913  0.50060826     1.04600
Cu24       Cu  0.14503908  0.42479048  0.50042788     1.04300
C25         C  0.15838806  0.44628619  0.52196944     0.94800
C26         C  0.15884964  0.40344807  0.47901970     0.94000
C27         C  0.15879230  0.44629200  0.47907662     0.86100
C28         C  0.15864526  0.40342034  0.52198486     0.92400
O29         O  0.48458081  0.78049550  0.51520921    -0.71400
O30         O  0.51632877  0.78105183  0.48165549    -0.72300
O31         O  0.48370272  0.78070876  0.48256867    -0.61000
O32         O  0.51726525  0.78092472  0.51424578    -0.69400
O33         O  0.51759321  0.75535993  0.51414421    -0.68900
O34         O  0.48391132  0.75514247  0.48233920    -0.60200
O35         O  0.51663148  0.75548302  0.48148158    -0.72700
O36         O  0.48483738  0.75493043  0.51506614    -0.71500
Cu37       Cu  0.50045241  0.78168740  0.49842660     1.04600
Cu38       Cu  0.50074782  0.75431931  0.49825659     1.04300
C39         C  0.47972204  0.76763100  0.52037001     0.94800
C40         C  0.52147781  0.76836396  0.47636198     0.94000
C41         C  0.47856891  0.76793458  0.47747826     0.86100
C42         C  0.52272610  0.76819770  0.51911252     0.92400
O43         O  0.85417889  0.40773405  0.51637371    -0.71400
O44         O  0.85411727  0.44141121  0.48488593    -0.72300
O45         O  0.85364136  0.44032384  0.51755475    -0.61000
O46         O  0.85460949  0.40880617  0.48374931    -0.69400
O47         O  0.82905477  0.40838117  0.48337845    -0.68900
O48         O  0.82808612  0.43999637  0.51728683    -0.60200
O49         O  0.82855817  0.44110676  0.48447211    -0.72700
O50         O  0.82861856  0.40725634  0.51612773    -0.71500
Cu51       Cu  0.85501817  0.42458929  0.50065489     1.04600
Cu52       Cu  0.82766170  0.42417712  0.50030245     1.04300
C53         C  0.84145702  0.40222649  0.52118932     0.94800
C54         C  0.84136710  0.44649379  0.47969839     0.94000
C55         C  0.84075090  0.44505832  0.52275158     0.86100
C56         C  0.84199463  0.40365992  0.47827437     0.92400
O57         O  0.51466142  0.44107973  0.14584912    -0.71400
O58         O  0.48273708  0.40776386  0.14550538    -0.72300
O59         O  0.48198657  0.44039953  0.14596716    -0.61000
O60         O  0.51535817  0.40846705  0.14538448    -0.69400
O61         O  0.51547724  0.40807982  0.17094598    -0.68900
O62         O  0.48206230  0.44007541  0.17152725    -0.60200
O63         O  0.48280407  0.40738631  0.17106999    -0.72700
O64         O  0.51479873  0.44075131  0.17141307    -0.71500
Cu65       Cu  0.49868053  0.42444817  0.14477842     1.04600
Cu66       Cu  0.49878703  0.42406765  0.17214451     1.04300
C67         C  0.51976631  0.44608475  0.15866750     0.94800
C68         C  0.47779332  0.40235265  0.15822400     0.94000
C69         C  0.47677660  0.44520594  0.15882418     0.86100
C70         C  0.52062900  0.40327552  0.15806402     0.92400
O71         O  0.51691263  0.41071880  0.83057401    -0.71400
O72         O  0.48411595  0.44318617  0.82928091    -0.72300
O73         O  0.51681320  0.44350155  0.83038920    -0.61000
O74         O  0.48417283  0.41049854  0.82962351    -0.69400
O75         O  0.48348742  0.41075305  0.85517286    -0.68900
O76         O  0.51593225  0.44359585  0.85593229    -0.60200
O77         O  0.48333942  0.44333419  0.85483872    -0.72700
O78         O  0.51613729  0.41090315  0.85612708    -0.71500
Cu79       Cu  0.50054631  0.42696312  0.82905448     1.04600
Cu80       Cu  0.49970814  0.42714915  0.85640666     1.04300
C81         C  0.52163169  0.40571626  0.84354026     0.94800
C82         C  0.47858391  0.44830213  0.84187231     0.94000
C83         C  0.52140560  0.44874880  0.84332497     0.86100
C84         C  0.47868932  0.40553485  0.84232392     0.92400
O85         O  0.98486143  0.59901060  0.98321191    -0.71400
O86         O  0.01657000  0.59708593  0.01686681    -0.72300
O87         O  0.01755764  0.59799248  0.98422307    -0.61000
O88         O  0.98389249  0.59808406  0.01596264    -0.69400
O89         O  0.98318995  0.57253447  0.01519340    -0.68900
O90         O  0.01673165  0.57244100  0.98356246    -0.60200
O91         O  0.01577753  0.57153732  0.01611034    -0.72700
O92         O  0.98414600  0.57346194  0.98254767    -0.71500
Cu93       Cu  0.00073771  0.59895569  0.00009405     1.04600
Cu94       Cu  0.99992362  0.57160362  0.99932824     1.04300
C95         C  0.97959295  0.58650821  0.97758266     0.94800
C96         C  0.02114655  0.58399990  0.02170882     0.94000
C97         C  0.02241302  0.58517007  0.97896617     0.86100
C98         C  0.97832631  0.58529553  0.02056997     0.92400
O99         O  0.64445441  0.90775169  0.01491996    -0.71400
O100        O  0.64444418  0.94191345  0.98375317    -0.72300
O101        O  0.64508663  0.90932696  0.98227124    -0.61000
O102        O  0.64375727  0.94040020  0.01628954    -0.69400
O103        O  0.66931433  0.94096934  0.01688063    -0.68900
O104        O  0.67064590  0.90978329  0.98275807    -0.60200
O105        O  0.66999941  0.94244228  0.98426226    -0.72700
O106        O  0.67000341  0.90823763  0.01548439    -0.71500
Cu107      Cu  0.64354319  0.92481890  0.99929737     1.04600
Cu108      Cu  0.67090013  0.92536410  0.99987318     1.04300
C109        C  0.65721947  0.90265979  0.02009705     0.94800
C110        C  0.65720902  0.94752317  0.97914554     0.94000
C111        C  0.65804904  0.90474098  0.97714217     0.86100
C112        C  0.65629896  0.94561841  0.02183826     0.92400
O113        O  0.98143657  0.27990784  0.98222498    -0.71400
O114        O  0.01362832  0.28026105  0.01535683    -0.72300
O115        O  0.01402844  0.28048715  0.98266753    -0.61000
O116        O  0.98104551  0.27971532  0.01487747    -0.69400
O117        O  0.98142774  0.25414575  0.01479392    -0.68900
O118        O  0.01451073  0.25492243  0.98245675    -0.60200
O119        O  0.01411296  0.25470032  0.01524429    -0.72700
O120        O  0.98182878  0.25434339  0.98204186    -0.71500
Cu121      Cu  0.99751946  0.28098245  0.99878690     1.04600
Cu122      Cu  0.99798586  0.25361521  0.99862796     1.04300
C123        C  0.97662293  0.26708849  0.97692640     0.94800
C124        C  0.01887569  0.26755647  0.02052094     0.94000
C125        C  0.01938864  0.26785080  0.97747286     0.86100
C126        C  0.97611731  0.26684153  0.01991710     0.92400
O127        O  0.35369996  0.94219034  0.98339964    -0.71400
O128        O  0.35580080  0.90943662  0.01578381    -0.72300
O129        O  0.35424208  0.90955234  0.98327458    -0.61000
O130        O  0.35517126  0.94204751  0.01598752    -0.69400
O131        O  0.32963099  0.94159503  0.01715478    -0.68900
O132        O  0.32870090  0.90903977  0.98439306    -0.60200
O133        O  0.33026790  0.90888987  0.01701155    -0.72700
O134        O  0.32815925  0.94180705  0.98445708    -0.71500
Cu135      Cu  0.35561665  0.92583553  0.99956323     1.04600
Cu136      Cu  0.32827530  0.92532892  0.00079227     1.04300
C137        C  0.34065344  0.94712876  0.97884665     0.94800
C138        C  0.34339451  0.90400173  0.02143399     0.94000
C139        C  0.34135381  0.90414679  0.97878672     0.86100
C140        C  0.34254798  0.94686662  0.02172013     0.92400
O141        O  0.98510550  0.94210714  0.67146369    -0.71400
O142        O  0.01751849  0.90903828  0.67360743    -0.72300
O143        O  0.01776844  0.94184420  0.67257308    -0.61000
O144        O  0.98476021  0.90936146  0.67249537    -0.69400
O145        O  0.98566403  0.90862577  0.64695956    -0.68900
O146        O  0.01854839  0.94096636  0.64703422    -0.60200
O147        O  0.01828632  0.90830621  0.64807058    -0.72700
O148        O  0.98601599  0.94124301  0.64593177    -0.71500
Cu149      Cu  0.00126679  0.92560712  0.67345203     1.04600
Cu150      Cu  0.00216891  0.92474752  0.64611670     1.04300
C151        C  0.98054118  0.94685964  0.65833601     0.94800
C152        C  0.02293564  0.90348445  0.66113312     0.94000
C153        C  0.02322186  0.94654829  0.65977368     0.86100
C154        C  0.98003103  0.90395632  0.65968418     0.92400
O155        O  0.98408880  0.90881564  0.35440893    -0.71400
O156        O  0.01632686  0.94176007  0.35392368    -0.72300
O157        O  0.98373889  0.94145486  0.35469742    -0.61000
O158        O  0.01666891  0.90910533  0.35363062    -0.69400
O159        O  0.01612271  0.90927976  0.32807703    -0.68900
O160        O  0.98305144  0.94175055  0.32914786    -0.60200
O161        O  0.01578752  0.94207689  0.32836570    -0.72700
O162        O  0.98340856  0.90896618  0.32885419    -0.71500
Cu163      Cu  0.00022955  0.92528321  0.35504706     1.04600
Cu164      Cu  0.99957363  0.92553297  0.32769210     1.04300
C165        C  0.97872736  0.90370168  0.34174334     0.94800
C166        C  0.02109532  0.94708623  0.34110894     0.94000
C167        C  0.97824098  0.94666973  0.34212664     0.86100
C168        C  0.02150391  0.90407449  0.34071676     0.92400
N169        N  0.66862704  0.79290419  0.66467366    -0.25700
N170        N  0.66100036  0.78102456  0.65897536    -0.33600
C171        C  0.66619479  0.76806041  0.66565078     0.02600
C172        C  0.67756443  0.77207105  0.67596836     0.08700
C173        C  0.67886562  0.78783979  0.67509491    -0.04400
H174        H  0.66205045  0.75660176  0.66311183     0.09300
H175        H  0.68665884  0.79511309  0.68151991     0.10500
Cu176      Cu  0.64413725  0.78289444  0.64214261     0.44200
Cu177      Cu  0.66481706  0.81548953  0.65828416     0.42000
Cu178      Cu  0.63667588  0.82151817  0.62842442     0.43900
N179        N  0.62878328  0.78790352  0.62452194    -0.33100
N180        N  0.62625358  0.80202594  0.61943561    -0.27300
C181        C  0.61594541  0.80147906  0.60792225    -0.03400
C182        C  0.61182133  0.78632805  0.60568859     0.08800
C183        C  0.62011067  0.77798053  0.61636461     0.02600
H184        H  0.61173008  0.81139816  0.60169689     0.10200
H185        H  0.61987969  0.76565627  0.61809224     0.09300
N186        N  0.64789023  0.83926571  0.63976353    -0.34500
N187        N  0.65821838  0.83703932  0.65070680    -0.26700
C188        C  0.66297218  0.85075429  0.65606912    -0.02000
C189        C  0.65524825  0.86206792  0.64808199     0.06700
C190        C  0.64578658  0.85447440  0.63785529     0.04700
H191        H  0.67124023  0.85232708  0.66523589     0.09900
H192        H  0.63780314  0.85958595  0.62979265     0.08700
N193        N  0.66643964  0.05687130  0.66649756    -0.25700
N194        N  0.65931645  0.06880448  0.66026218    -0.33600
C195        C  0.66546177  0.08183024  0.66597758     0.02600
C196        C  0.67692896  0.07781410  0.67620912     0.08700
C197        C  0.67727109  0.06196939  0.67629379    -0.04400
H198        H  0.66175881  0.09333288  0.66299851     0.09300
H199        H  0.68470645  0.05465653  0.68308581     0.10500
Cu200      Cu  0.64136174  0.06692543  0.64446046     0.44200
Cu201      Cu  0.66100655  0.03410311  0.66205994     0.42000
Cu202      Cu  0.62912528  0.02798222  0.63642955     0.43900
N203        N  0.62376681  0.06151240  0.62907392    -0.33100
N204        N  0.61935226  0.04722052  0.62624721    -0.27300
C205        C  0.60799735  0.04739565  0.61574206    -0.03400
C206        C  0.60511623  0.06248868  0.61179148     0.08800
C207        C  0.61528508  0.07118046  0.62040112     0.02600
H208        H  0.60236689  0.03725706  0.61122169     0.10200
H209        H  0.61652812  0.08356414  0.62028874     0.09300
N210        N  0.64095715  0.01025192  0.64713518    -0.34500
N211        N  0.65277296  0.01246672  0.65645311    -0.26700
C212        C  0.65821202  0.99872914  0.66108155    -0.02000
C213        C  0.64934101  0.98742507  0.65434182     0.06700
C214        C  0.63853819  0.99505132  0.64557849     0.04700
H215        H  0.66801488  0.99712230  0.66857751     0.09900
H216        H  0.62975892  0.98995832  0.63837653     0.08700
N217        N  0.86820385  0.59263896  0.66583572    -0.25700
N218        N  0.85639876  0.58449163  0.66073344    -0.33600
C219        C  0.84339642  0.58996323  0.66710098     0.02600
C220        C  0.84729054  0.60206370  0.67659846     0.08700
C221        C  0.86304411  0.60349299  0.67557393    -0.04400
H222        H  0.83199132  0.58547026  0.66494711     0.09300
H223        H  0.87023992  0.61178446  0.68143854     0.10500
Cu224      Cu  0.85841291  0.56637102  0.64527636     0.44200
Cu225      Cu  0.89079816  0.58874899  0.65943457     0.42000
Cu226      Cu  0.89700746  0.55781185  0.63233929     0.43900
N227        N  0.86349844  0.54911279  0.62953407    -0.33100
N228        N  0.87764110  0.54602274  0.62483918    -0.27300
C229        C  0.87711669  0.53460669  0.61441006    -0.03400
C230        C  0.86195302  0.53034626  0.61247691     0.08800
C231        C  0.85358556  0.53973522  0.62218500     0.02600
H232        H  0.88702248  0.52996040  0.60848047     0.10200
H233        H  0.84122458  0.53994392  0.62361384     0.09300
N234        N  0.91459540  0.57106229  0.64157384    -0.34500
N235        N  0.91231362  0.58235806  0.65150918    -0.26700
C236        C  0.92598568  0.58831128  0.65564787    -0.02000
C237        C  0.93732849  0.58037089  0.64791606     0.06700
C238        C  0.92979410  0.56953278  0.63910598     0.04700
H239        H  0.92753045  0.59753174  0.66386226     0.09900
H240        H  0.93495669  0.56098792  0.63167665     0.08700
N241        N  0.13260665  0.59314752  0.66634211    -0.25700
N242        N  0.14434176  0.58588009  0.65991497    -0.33600
C243        C  0.15753563  0.59141427  0.66581997     0.02600
C244        C  0.15385923  0.60263673  0.67641259     0.08700
C245        C  0.13802480  0.60349036  0.67649575    -0.04400
H246        H  0.16892275  0.58752322  0.66264653     0.09300
H247        H  0.13094549  0.61102344  0.68342383     0.10500
Cu248      Cu  0.14204915  0.56878718  0.64339865     0.44200
Cu249      Cu  0.10971770  0.58883934  0.66116204     0.42000
Cu250      Cu  0.10304184  0.56078950  0.63143013     0.43900
N251        N  0.13643318  0.55256401  0.62680611    -0.33100
N252        N  0.12213594  0.54978543  0.62239961    -0.27300
C253        C  0.12223652  0.53883954  0.61148511    -0.03400
C254        C  0.13728529  0.53455880  0.60894402     0.08800
C255        C  0.14603696  0.54342228  0.61879471     0.02600
H256        H  0.11209456  0.53434889  0.60583879     0.10200
H257        H  0.15841896  0.54328840  0.62003718     0.09300
N258        N  0.08555227  0.57251422  0.64255856    -0.34500
N259        N  0.08794277  0.58273173  0.65357137    -0.26700
C260        C  0.07428634  0.58808355  0.65853596    -0.02000
C261        C  0.06286817  0.58086244  0.65019914     0.06700
C262        C  0.07033622  0.57108518  0.64019451     0.04700
H263        H  0.07281410  0.59655800  0.66752861     0.09900
H264        H  0.06512801  0.56345088  0.63185886     0.08700
N265        N  0.66431052  0.59786749  0.86794125    -0.25700
N266        N  0.65739515  0.59125241  0.85608732    -0.33600
C267        C  0.66368361  0.59663920  0.84300205     0.02600
C268        C  0.67501836  0.60704405  0.84690250     0.08700
C269        C  0.67514686  0.60758821  0.86272531    -0.04400
H270        H  0.66032700  0.59313773  0.83154260     0.09300
H271        H  0.68261386  0.61444417  0.86994655     0.10500
Cu272      Cu  0.64006441  0.57482395  0.85799498     0.44200
Cu273      Cu  0.65931932  0.59344932  0.89078578     0.42000
Cu274      Cu  0.63049799  0.56465592  0.89694939     0.43900
N275        N  0.62389287  0.55806261  0.86358768    -0.33100
N276        N  0.62052357  0.55441056  0.87796549    -0.27300
C277        C  0.60997083  0.54311589  0.87802881    -0.03400
C278        C  0.60653923  0.53949033  0.86299241     0.08800
C279        C  0.61551430  0.54913298  0.85407284     0.02600
H280        H  0.60521320  0.53790458  0.88828250     0.10200
H281        H  0.61599179  0.54958473  0.84164666     0.09300
N282        N  0.64185455  0.57574721  0.91463255    -0.34500
N283        N  0.65249072  0.58639607  0.91245667    -0.26700
C284        C  0.65772753  0.59119016  0.92621519    -0.02000
C285        C  0.64995718  0.58310940  0.93745699     0.06700
C286        C  0.64000698  0.57344594  0.92979580     0.04700
H287        H  0.66654214  0.59982152  0.92786872     0.09900
H288        H  0.63205713  0.56529745  0.93483186     0.08700
N289        N  0.66861988  0.58799079  0.13197996    -0.25700
N290        N  0.66220697  0.58113798  0.14397217    -0.33600
C291        C  0.66858321  0.58671358  0.15693656     0.02600
C292        C  0.67947793  0.59751321  0.15282543     0.08700
C293        C  0.67923275  0.59807526  0.13698415    -0.04400
H294        H  0.66539087  0.58327834  0.16846471     0.09300
H295        H  0.68609845  0.60539921  0.12962423     0.10500
Cu296      Cu  0.64483310  0.56478632  0.14224232     0.44200
Cu297      Cu  0.66246390  0.58388545  0.10931477     0.42000
Cu298      Cu  0.63185979  0.55666030  0.10348619     0.43900
N299        N  0.62754143  0.54909536  0.13707700    -0.33100
N300        N  0.62286538  0.54620670  0.12288671    -0.27300
C301        C  0.61152098  0.53570967  0.12331753    -0.03400
C302        C  0.60896429  0.53184411  0.13847256     0.08800
C303        C  0.61925853  0.54047948  0.14694024     0.02600
H304        H  0.60554477  0.53130015  0.11333129     0.10200
H305        H  0.62058986  0.54057507  0.15931194     0.09300
N306        N  0.64255909  0.56831155  0.08570292    -0.34500
N307        N  0.65385594  0.57828066  0.08780621    -0.26700
C308        C  0.65840710  0.58373005  0.07405292    -0.02000
C309        C  0.64951636  0.57682549  0.06287113     0.06700
C310        C  0.63959725  0.56713410  0.07056994     0.04700
H311        H  0.66752636  0.59202955  0.07235048     0.09900
H312        H  0.63093531  0.55971940  0.06557865     0.08700
N313        N  0.86783176  0.59232335  0.33445266    -0.25700
N314        N  0.85602563  0.58475180  0.34038981    -0.33600
C315        C  0.84294620  0.59007228  0.33406073     0.02600
C316        C  0.84678124  0.60147025  0.32371500     0.08700
C317        C  0.86258002  0.60265258  0.32420598    -0.04400
H318        H  0.83153392  0.58590927  0.33677203     0.09300
H319        H  0.86975355  0.61036115  0.31756687     0.10500
Cu320      Cu  0.85802619  0.56755084  0.35683250     0.44200
Cu321      Cu  0.89060737  0.58824046  0.34012553     0.42000
Cu322      Cu  0.89684157  0.55814913  0.36793016     0.43900
N323        N  0.86331935  0.55144676  0.37364618    -0.33100
N324        N  0.87759688  0.54807343  0.37766967    -0.27300
C325        C  0.87732163  0.53753038  0.38897494    -0.03400
C326        C  0.86217008  0.53414649  0.39218633     0.08800
C327        C  0.85354510  0.54310813  0.38230806     0.02600
H328        H  0.88741209  0.53275446  0.39447504     0.10200
H329        H  0.84113600  0.54360769  0.38150991     0.09300
N330        N  0.91447679  0.57011297  0.35732103    -0.34500
N331        N  0.91224904  0.58124934  0.34719908    -0.26700
C332        C  0.92598611  0.58660984  0.34247609    -0.02000
C333        C  0.93727833  0.57840331  0.35002077     0.06700
C334        C  0.92966601  0.56806611  0.35932467     0.04700
H335        H  0.92759440  0.59569550  0.33412197     0.09900
H336        H  0.93475490  0.55963501  0.36693546     0.08700
N337        N  0.13219608  0.59241572  0.33410685    -0.25700
N338        N  0.14415488  0.58492271  0.33982793    -0.33600
C339        C  0.15710423  0.59055142  0.33346279     0.02600
C340        C  0.15302519  0.60207498  0.32332997     0.08700
C341        C  0.13721136  0.60299550  0.32398764    -0.04400
H342        H  0.16860343  0.58655919  0.33604968     0.09300
H343        H  0.12986834  0.61074033  0.31758558     0.10500
Cu344      Cu  0.14244406  0.56749575  0.35615501     0.44200
Cu345      Cu  0.10951864  0.58796973  0.33996553     0.42000
Cu346      Cu  0.10362967  0.55802880  0.36784760     0.43900
N347        N  0.13725262  0.55108264  0.37278853    -0.33100
N348        N  0.12301497  0.54775753  0.37701488    -0.27300
C349        C  0.12336952  0.53691564  0.38802531    -0.03400
C350        C  0.13852413  0.53325411  0.39083585     0.08800
C351        C  0.14707917  0.54239261  0.38104245     0.02600
H352        H  0.11332296  0.53210716  0.39358417     0.10200
H353        H  0.15947653  0.54276261  0.38002155     0.09300
N354        N  0.08582202  0.56968304  0.35724984    -0.34500
N355        N  0.08793227  0.58075580  0.34703635    -0.26700
C356        C  0.07413889  0.58590519  0.34225909    -0.02000
C357        C  0.06293366  0.57762643  0.34986375     0.06700
C358        C  0.07065536  0.56746284  0.35926501     0.04700
H359        H  0.07243280  0.59492639  0.33385622     0.09900
H360        H  0.06565961  0.55905307  0.36696447     0.08700
N361        N  0.66874144  0.79159364  0.33204154    -0.25700
N362        N  0.66157158  0.77991850  0.33869698    -0.33600
C363        C  0.66712899  0.76666888  0.33295835     0.02600
C364        C  0.67825250  0.77025417  0.32223951     0.08700
C365        C  0.67903631  0.78608249  0.32190122    -0.04400
H366        H  0.66324480  0.75531121  0.33625500     0.09300
H367        H  0.68641496  0.79309662  0.31473788     0.10500
Cu368      Cu  0.64433209  0.78227405  0.35503455     0.44200
Cu369      Cu  0.66417806  0.81452215  0.33661210     0.42000
Cu370      Cu  0.63438135  0.82117670  0.36468165     0.43900
N371        N  0.62750824  0.78788324  0.37099894    -0.33100
N372        N  0.62392621  0.80224659  0.37448489    -0.27300
C373        C  0.61279942  0.80225464  0.38520656    -0.03400
C374        C  0.60923854  0.78718594  0.38858436     0.08800
C375        C  0.61871882  0.77831785  0.37943801     0.02600
H376        H  0.60775779  0.81247750  0.39020371     0.10200
H377        H  0.61926470  0.76589192  0.37898992     0.09300
N378        N  0.64619478  0.83857469  0.35366470    -0.34500
N379        N  0.65712828  0.83624545  0.34335059    -0.26700
C380        C  0.66235275  0.84994288  0.33836429    -0.02000
C381        C  0.65427139  0.86128370  0.34596927     0.06700
C382        C  0.64414866  0.85376587  0.35554903     0.04700
H383        H  0.67127963  0.85148791  0.32983101     0.09900
H384        H  0.63585563  0.85891616  0.36326825     0.08700
N385        N  0.66412019  0.05551429  0.32952182    -0.25700
N386        N  0.65659813  0.06741675  0.33530679    -0.33600
C387        C  0.66211273  0.08040960  0.32897671     0.02600
C388        C  0.67358399  0.07641100  0.31879120     0.08700
C389        C  0.67461954  0.06060732  0.31936972    -0.04400
H390        H  0.65816123  0.09188740  0.33172101     0.09300
H391        H  0.68246700  0.05334303  0.31300341     0.10500
Cu392      Cu  0.63952704  0.06570811  0.35188994     0.44200
Cu393      Cu  0.66000099  0.03292148  0.33568695     0.42000
Cu394      Cu  0.63106886  0.02748209  0.36517659     0.43900
N395        N  0.62368989  0.06108824  0.36913173    -0.33100
N396        N  0.62069934  0.04700695  0.37405457    -0.27300
C397        C  0.61028159  0.04773720  0.38546023    -0.03400
C398        C  0.60658098  0.06298696  0.38778475     0.08800
C399        C  0.61523566  0.07118661  0.37728655     0.02600
H400        H  0.60583494  0.03789958  0.39165777     0.10200
H401        H  0.61550124  0.08353785  0.37577109     0.09300
N402        N  0.64255274  0.00961997  0.35438618    -0.34500
N403        N  0.65313133  0.01158958  0.34362646    -0.26700
C404        C  0.65816272  0.99775273  0.33888459    -0.02000
C405        C  0.65034747  0.98665820  0.34708166     0.06700
C406        C  0.64055807  0.99447559  0.35678890     0.04700
H407        H  0.66678367  0.99594516  0.33009238     0.09900
H408        H  0.63253114  0.98956182  0.36493454     0.08700
N409        N  0.86798303  0.25743715  0.66701443    -0.25700
N410        N  0.85615350  0.26365412  0.65970859    -0.33600
C411        C  0.84303238  0.25786763  0.66555357     0.02600
C412        C  0.84686294  0.24758873  0.67702279     0.08700
C413        C  0.86270074  0.24755298  0.67768224    -0.04400
H414        H  0.83159835  0.26080552  0.66161532     0.09300
H415        H  0.86988239  0.24073290  0.68521791     0.10500
Cu416      Cu  0.85822508  0.27935319  0.64180087     0.44200
Cu417      Cu  0.89086689  0.26209492  0.66206723     0.42000
Cu418      Cu  0.89718659  0.28677926  0.62953480     0.43900
N419        N  0.86380706  0.29414964  0.62388137    -0.33100
N420        N  0.87811218  0.29664411  0.61933769    -0.27300
C421        C  0.87806527  0.30692676  0.60779582    -0.03400
C422        C  0.86303258  0.31106146  0.60496274     0.08800
C423        C  0.85424333  0.30282476  0.61532216     0.02600
H424        H  0.88825445  0.31129589  0.60213523     0.10200
H425        H  0.84188631  0.30327940  0.61672507     0.09300
N426        N  0.91482220  0.27727029  0.64232219    -0.34500
N427        N  0.91260295  0.26830963  0.65441146    -0.26700
C428        C  0.92635318  0.26454180  0.66046720    -0.02000
C429        C  0.93762973  0.27150536  0.65170818     0.06700
C430        C  0.92999103  0.27946206  0.64033194     0.04700
H431        H  0.92797753  0.25743487  0.67055395     0.09900
H432        H  0.93504024  0.28651240  0.63140204     0.08700
N433        N  0.13193139  0.25826321  0.66789450    -0.25700
N434        N  0.14403616  0.26445501  0.66102652    -0.33600
C435        C  0.15689532  0.25811279  0.66682901     0.02600
C436        C  0.15260327  0.24749429  0.67779370     0.08700
C437        C  0.13677018  0.24783541  0.67824100    -0.04400
H438        H  0.16847397  0.26107239  0.66335121     0.09300
H439        H  0.12930289  0.24107000  0.68555015     0.10500
Cu440      Cu  0.14283002  0.28136968  0.64422591     0.44200
Cu441      Cu  0.10933499  0.26413565  0.66320569     0.42000
Cu442      Cu  0.10452482  0.29371544  0.63467476     0.43900
N443        N  0.13823023  0.29841475  0.62816383    -0.33100
N444        N  0.12410031  0.30289983  0.62476396    -0.27300
C445        C  0.12474456  0.31404795  0.61408123    -0.03400
C446        C  0.13998431  0.31667289  0.61061873     0.08800
C447        C  0.14828806  0.30661712  0.61969238     0.02600
H448        H  0.11483566  0.31976555  0.60918190     0.10200
H449        H  0.16065817  0.30531998  0.62010280     0.09300
N450        N  0.08635535  0.28330183  0.64595574    -0.34500
N451        N  0.08806023  0.27242284  0.65644869    -0.26700
C452        C  0.07410047  0.26810114  0.66155425    -0.02000
C453        C  0.06321084  0.27672843  0.65388418     0.06700
C454        C  0.07128977  0.28621512  0.64408136     0.04700
H455        H  0.07206483  0.25932589  0.67014384     0.09900
H456        H  0.06660425  0.29457428  0.63614003     0.08700
N457        N  0.33339682  0.79347152  0.66531286    -0.25700
N458        N  0.34035987  0.78154176  0.65890948    -0.33600
C459        C  0.33447509  0.76850155  0.66483908     0.02600
C460        C  0.32333046  0.77248012  0.67541711     0.08700
C461        C  0.32290639  0.78833921  0.67547280    -0.04400
H462        H  0.33801934  0.75701034  0.66163310     0.09300
H463        H  0.31550876  0.79562468  0.68233309     0.10500
Cu464      Cu  0.35737747  0.78340808  0.64221495     0.44200
Cu465      Cu  0.33824121  0.81620986  0.65990479     0.42000
Cu466      Cu  0.36763195  0.82199848  0.63094440     0.43900
N467        N  0.37362204  0.78830823  0.62537027    -0.33100
N468        N  0.37733342  0.80248838  0.62127599    -0.27300
C469        C  0.38802475  0.80190415  0.61011204    -0.03400
C470        C  0.39115944  0.78665196  0.60707686     0.08800
C471        C  0.38188280  0.77829959  0.61690566     0.02600
H472        H  0.39313439  0.81185260  0.60464465     0.10200
H473        H  0.38118241  0.76590982  0.61786402     0.09300
N474        N  0.35584622  0.83978261  0.64157665    -0.34500
N475        N  0.34505895  0.83771505  0.65211184    -0.26700
C476        C  0.33950538  0.85151575  0.65641060    -0.02000
C477        C  0.34719443  0.86268995  0.64816104     0.06700
C478        C  0.35745986  0.85493217  0.63889397     0.04700
H479        H  0.33050995  0.85324610  0.66483446     0.09900
H480        H  0.36544132  0.85989164  0.63073095     0.08700
N481        N  0.33257087  0.05792980  0.66523536    -0.25700
N482        N  0.33944469  0.06978397  0.65858515    -0.33600
C483        C  0.33401959  0.08288988  0.66477606     0.02600
C484        C  0.32326107  0.07905373  0.67578587     0.08700
C485        C  0.32258585  0.06319650  0.67582931    -0.04400
H486        H  0.33758481  0.09433598  0.66142456     0.09300
H487        H  0.31533051  0.05600785  0.68294441     0.10500
Cu488      Cu  0.35579358  0.06782211  0.64129384     0.44200
Cu489      Cu  0.33690744  0.03510246  0.65963233     0.42000
Cu490      Cu  0.36569903  0.02912307  0.63021555     0.43900
N491        N  0.37206084  0.06273150  0.62458134    -0.33100
N492        N  0.37567944  0.04850585  0.62057961    -0.27300
C493        C  0.38667082  0.04895212  0.60970717    -0.03400
C494        C  0.39008799  0.06416339  0.60677344     0.08800
C495        C  0.38066674  0.07263493  0.61634242     0.02600
H496        H  0.39182435  0.03893973  0.60440847     0.10200
H497        H  0.38014782  0.08503138  0.61732583     0.09300
N498        N  0.35435846  0.01137705  0.64137901    -0.34500
N499        N  0.34376755  0.01348642  0.65210061    -0.26700
C500        C  0.33863414  0.99967290  0.65689180    -0.02000
C501        C  0.34641104  0.98845534  0.64877573     0.06700
C502        C  0.35626820  0.99620445  0.63906579     0.04700
H503        H  0.32988537  0.99795834  0.66557570     0.09900
H504        H  0.36419372  0.99121700  0.63086884     0.08700
N505        N  0.66702567  0.25967228  0.86751561    -0.25700
N506        N  0.66068800  0.26687807  0.85568946    -0.33600
C507        C  0.66670730  0.26127157  0.84257328     0.02600
C508        C  0.67727606  0.25006484  0.84639384     0.08700
C509        C  0.67722489  0.24930431  0.86223281    -0.04400
H510        H  0.66355132  0.26502864  0.83113652     0.09300
H511        H  0.68402561  0.24174408  0.86940700     0.10500
Cu512      Cu  0.64399410  0.28385875  0.85774783     0.44200
Cu513      Cu  0.66161840  0.26395687  0.89037307     0.42000
Cu514      Cu  0.63294240  0.29299797  0.89679081     0.43900
N515        N  0.62742037  0.30015009  0.86329642    -0.33100
N516        N  0.62345931  0.30343379  0.87761579    -0.27300
C517        C  0.61246614  0.31429997  0.87747464    -0.03400
C518        C  0.60939110  0.31799005  0.86237216     0.08800
C519        C  0.61901514  0.30886835  0.85363430     0.02600
H520        H  0.60710157  0.31910421  0.88762439     0.10200
H521        H  0.61983957  0.30854589  0.84122212     0.09300
N522        N  0.64364146  0.28110325  0.91441233    -0.34500
N523        N  0.65419958  0.27039702  0.91212694    -0.26700
C524        C  0.65893687  0.26498563  0.92584478    -0.02000
C525        C  0.65093093  0.27269532  0.93718731     0.06700
C526        C  0.64135531  0.28281013  0.92960871     0.04700
H527        H  0.66760191  0.25619254  0.92741369     0.09900
H528        H  0.63338461  0.29088040  0.93472876     0.08700
N529        N  0.66630088  0.25799688  0.13200551    -0.25700
N530        N  0.65948611  0.26428515  0.14408345    -0.33600
C531        C  0.66578963  0.25851047  0.15697746     0.02600
C532        C  0.67704927  0.24819039  0.15272052     0.08700
C533        C  0.67711188  0.24808191  0.13688509    -0.04400
H534        H  0.66241649  0.26161140  0.16854776     0.09300
H535        H  0.68441880  0.24129788  0.12943825     0.10500
Cu536      Cu  0.64211148  0.28057810  0.14269126     0.44200
Cu537      Cu  0.66080324  0.26286703  0.10936910     0.42000
Cu538      Cu  0.63047602  0.29024187  0.10394497     0.43900
N539        N  0.62567816  0.29712328  0.13764543    -0.33100
N540        N  0.62149102  0.30058737  0.12343334    -0.27300
C541        C  0.61086324  0.31179955  0.12387836    -0.03400
C542        C  0.60827196  0.31553320  0.13906015     0.08800
C543        C  0.61779292  0.30606467  0.14753986     0.02600
H544        H  0.60545479  0.31685313  0.11387398     0.10200
H545        H  0.61893814  0.30569514  0.15992562     0.09300
N546        N  0.64165127  0.27940634  0.08591049    -0.34500
N547        N  0.65293645  0.26940811  0.08788379    -0.26700
C548        C  0.65805908  0.26475697  0.07403971    -0.02000
C549        C  0.64954317  0.27221208  0.06291653     0.06700
C550        C  0.63925648  0.28139612  0.07076043     0.04700
H551        H  0.66734207  0.25666622  0.07224176     0.09900
H552        H  0.63077980  0.28907510  0.06585602     0.08700
N553        N  0.33429421  0.59416851  0.86896676    -0.25700
N554        N  0.34108059  0.58816492  0.85673760    -0.33600
C555        C  0.33514061  0.59465622  0.84400130     0.02600
C556        C  0.32415067  0.60518421  0.84851103     0.08700
C557        C  0.32386665  0.60462293  0.86435210    -0.04400
H558        H  0.33854315  0.59187091  0.83235975     0.09300
H559        H  0.31662168  0.61127318  0.87197719     0.10500
Cu560      Cu  0.35801253  0.57136297  0.85791383     0.44200
Cu561      Cu  0.33943150  0.58803542  0.89140907     0.42000
Cu562      Cu  0.36960643  0.56022344  0.89649854     0.43900
N563        N  0.37447521  0.55470509  0.86256588    -0.33100
N564        N  0.37868446  0.55077078  0.87665341    -0.27300
C565        C  0.38937473  0.53964646  0.87583069    -0.03400
C566        C  0.39197883  0.53646758  0.86053582     0.08800
C567        C  0.38240698  0.54615089  0.85237966     0.02600
H568        H  0.39476272  0.53423051  0.88565609     0.10200
H569        H  0.38122570  0.54689874  0.84001475     0.09300
N570        N  0.35809051  0.57044954  0.91461942    -0.34500
N571        N  0.34688793  0.58056707  0.91276468    -0.26700
C572        C  0.34158803  0.58483711  0.92665986    -0.02000
C573        C  0.34989680  0.57701079  0.93767617     0.06700
C574        C  0.36024996  0.56800061  0.92973465     0.04700
H575        H  0.33237739  0.59298601  0.92856122     0.09900
H576        H  0.36866269  0.56019054  0.93454321     0.08700
N577        N  0.33073087  0.59005623  0.13225875    -0.25700
N578        N  0.33771590  0.58397980  0.14434650    -0.33600
C579        C  0.33213261  0.59059797  0.15719574     0.02600
C580        C  0.32117286  0.60127092  0.15289783     0.08700
C581        C  0.32054534  0.60065547  0.13707291    -0.04400
H582        H  0.33576295  0.58781466  0.16876870     0.09300
H583        H  0.31324604  0.60740084  0.12958304     0.10500
Cu584      Cu  0.35432809  0.56677817  0.14280545     0.44200
Cu585      Cu  0.33519376  0.58389105  0.10967824     0.42000
Cu586      Cu  0.36233065  0.55321435  0.10414326     0.43900
N587        N  0.36968777  0.54908313  0.13781071    -0.33100
N588        N  0.37239865  0.54410184  0.12368632    -0.27300
C589        C  0.38274544  0.53262581  0.12423943    -0.03400
C590        C  0.38670850  0.53028860  0.13940559     0.08800
C591        C  0.37829178  0.54087215  0.14774719     0.02600
H592        H  0.38713284  0.52654099  0.11430919     0.10200
H593        H  0.37844116  0.54253990  0.16007690     0.09300
N594        N  0.35174297  0.56469112  0.08619203    -0.34500
N595        N  0.34180145  0.57602668  0.08818352    -0.26700
C596        C  0.33742096  0.58139283  0.07434123    -0.02000
C597        C  0.34499465  0.57298029  0.06322129     0.06700
C598        C  0.35397078  0.56251416  0.07104884     0.04700
H599        H  0.32950643  0.59082772  0.07254819     0.09900
H600        H  0.36172479  0.55410638  0.06614335     0.08700
N601        N  0.33208672  0.79331664  0.33280253    -0.25700
N602        N  0.33822504  0.78148859  0.34016837    -0.33600
C603        C  0.33164723  0.76844224  0.33504592     0.02600
C604        C  0.32091975  0.77234877  0.32402081     0.08700
C605        C  0.32146755  0.78813745  0.32283148    -0.04400
H606        H  0.33451461  0.75700020  0.33901638     0.09300
H607        H  0.31472176  0.79534828  0.31525566     0.10500
Cu608      Cu  0.35522144  0.78354092  0.35686688     0.44200
Cu609      Cu  0.33819292  0.81600928  0.33640547     0.42000
Cu610      Cu  0.36703821  0.82254755  0.36521760     0.43900
N611        N  0.37167005  0.78916035  0.37328965    -0.33100
N612        N  0.37587396  0.80347631  0.37628549    -0.27300
C613        C  0.38664416  0.80340899  0.38736530    -0.03400
C614        C  0.38932462  0.78835485  0.39151374     0.08800
C615        C  0.37970698  0.77956590  0.38242195     0.02600
H616        H  0.39216460  0.81357340  0.39196387     0.10200
H617        H  0.37867109  0.76716287  0.38237035     0.09300
N618        N  0.35657613  0.84001875  0.35300320    -0.34500
N619        N  0.34594453  0.83766138  0.34239260    -0.26700
C620        C  0.34120249  0.85131090  0.33686539    -0.02000
C621        C  0.34930247  0.86267301  0.34439826     0.06700
C622        C  0.35892024  0.85521418  0.35453769     0.04700
H623        H  0.33240411  0.85281508  0.32819433     0.09900
H624        H  0.36687301  0.86041031  0.36257801     0.08700
N625        N  0.33249823  0.05738336  0.33234360    -0.25700
N626        N  0.33852413  0.06922590  0.33977668    -0.33600
C627        C  0.33245233  0.08230024  0.33412201     0.02600
C628        C  0.32219770  0.07839783  0.32264772     0.08700
C629        C  0.32246124  0.06257889  0.32179348    -0.04400
H630        H  0.33532773  0.09375444  0.33805158     0.09300
H631        H  0.31588234  0.05535459  0.31408482     0.10500
Cu632      Cu  0.35484546  0.06711652  0.35713471     0.44200
Cu633      Cu  0.33799866  0.03465163  0.33665818     0.42000
Cu634      Cu  0.36594913  0.02807290  0.36638935     0.43900
N635        N  0.37122282  0.06154422  0.37364939    -0.33100
N636        N  0.37520511  0.04722857  0.37693474    -0.27300
C637        C  0.38615746  0.04736107  0.38783259    -0.03400
C638        C  0.38918493  0.06245719  0.39156190     0.08800
C639        C  0.37958584  0.07120289  0.38241275     0.02600
H640        H  0.39159077  0.03721134  0.39256412     0.10200
H641        H  0.37882108  0.08361933  0.38203192     0.09300
N642        N  0.35524289  0.01059662  0.35441459    -0.34500
N643        N  0.34498789  0.01296429  0.34344059    -0.26700
C644        C  0.34010197  0.99930674  0.33805926    -0.02000
C645        C  0.34768489  0.98793285  0.34609474     0.06700
C646        C  0.35718375  0.99539032  0.35634402     0.04700
H647        H  0.33163508  0.99781176  0.32906281     0.09900
H648        H  0.36487964  0.99019352  0.36462986     0.08700
N649        N  0.86667702  0.25706530  0.33303372    -0.25700
N650        N  0.85463879  0.26418748  0.33906909    -0.33600
C651        C  0.84171172  0.25818153  0.33303198     0.02600
C652        C  0.84587996  0.24681166  0.32278489     0.08700
C653        C  0.86172114  0.24635889  0.32302537    -0.04400
H654        H  0.83016966  0.26188508  0.33584916     0.09300
H655        H  0.86912402  0.23890505  0.31635368     0.10500
Cu656      Cu  0.85605089  0.28183664  0.35515598     0.44200
Cu657      Cu  0.88939995  0.26223874  0.33811263     0.42000
Cu658      Cu  0.89467165  0.29262431  0.36553732     0.43900
N659        N  0.86104233  0.29878847  0.37127648    -0.33100
N660        N  0.87528450  0.30259689  0.37503093    -0.27300
C661        C  0.87492354  0.31364045  0.38583133    -0.03400
C662        C  0.85975517  0.31692881  0.38901719     0.08800
C663        C  0.85119395  0.30736274  0.37963534     0.02600
H664        H  0.88498047  0.31881627  0.39102550     0.10200
H665        H  0.83878904  0.30660070  0.37899302     0.09300
N666        N  0.91271293  0.28161236  0.35464860    -0.34500
N667        N  0.91086266  0.27038676  0.34455800    -0.26700
C668        C  0.92476919  0.26581259  0.33950933    -0.02000
C669        C  0.93576865  0.27463780  0.34680952     0.06700
C670        C  0.92780587  0.28450533  0.35631821     0.04700
H671        H  0.92669195  0.25678982  0.33115757     0.09900
H672        H  0.93258911  0.29315811  0.36387769     0.08700
N673        N  0.13087127  0.25878199  0.33283423    -0.25700
N674        N  0.14275183  0.26488076  0.34015555    -0.33600
C675        C  0.15582704  0.25917305  0.33415742     0.02600
C676        C  0.15192999  0.24906188  0.32257250     0.08700
C677        C  0.13608043  0.24903983  0.32199671    -0.04400
H678        H  0.16728940  0.26216648  0.33797093     0.09300
H679        H  0.12885207  0.24243955  0.31431036     0.10500
Cu680      Cu  0.14088351  0.28077741  0.35790297     0.44200
Cu681      Cu  0.10807726  0.26387434  0.33772254     0.42000
Cu682      Cu  0.10223817  0.29194362  0.36772615     0.43900
N683        N  0.13578861  0.29695890  0.37473239    -0.33100
N684        N  0.12155302  0.30102811  0.37822298    -0.27300
C685        C  0.12192356  0.31190213  0.38920108    -0.03400
C686        C  0.13709542  0.31478094  0.39276896     0.08800
C687        C  0.14563658  0.30516585  0.38343868     0.02600
H688        H  0.11188497  0.31739897  0.39408915     0.10200
H689        H  0.15803896  0.30430902  0.38287536     0.09300
N690        N  0.08446711  0.28156212  0.35580139    -0.34500
N691        N  0.08652472  0.27125156  0.34480714    -0.26700
C692        C  0.07270196  0.26680273  0.33942827    -0.02000
C693        C  0.06154156  0.27473811  0.34745680     0.06700
C694        C  0.06931951  0.28396782  0.35772777     0.04700
H695        H  0.07094398  0.25844079  0.33038145     0.09900
H696        H  0.06437250  0.29184157  0.36599850     0.08700
N697        N  0.33247448  0.25993853  0.86779839    -0.25700
N698        N  0.33918888  0.26594940  0.85551749    -0.33600
C699        C  0.33346558  0.25909083  0.84286406     0.02600
C700        C  0.32273217  0.24833459  0.84750189     0.08700
C701        C  0.32235299  0.24914168  0.86331111    -0.04400
H702        H  0.33688557  0.26173215  0.83119338     0.09300
H703        H  0.31527660  0.24239363  0.87101472     0.10500
Cu704      Cu  0.35594921  0.28308807  0.85645134     0.44200
Cu705      Cu  0.33717231  0.26629007  0.89022529     0.42000
Cu706      Cu  0.36667757  0.29447878  0.89513189     0.43900
N707        N  0.37258169  0.29968724  0.86127632    -0.33100
N708        N  0.37643307  0.30363949  0.87546068    -0.27300
C709        C  0.38737385  0.31453933  0.87492506    -0.03400
C710        C  0.39056466  0.31760806  0.85971993     0.08800
C711        C  0.38103538  0.30804489  0.85130279     0.02600
H712        H  0.39255804  0.31987721  0.88490058     0.10200
H713        H  0.38026223  0.30723504  0.83890989     0.09300
N714        N  0.35508449  0.28451857  0.91336148    -0.34500
N715        N  0.34410439  0.27415708  0.91155867    -0.26700
C716        C  0.33881095  0.26990723  0.92546136    -0.02000
C717        C  0.34688350  0.27802957  0.93643737     0.06700
C718        C  0.35710792  0.28716715  0.92846062     0.04700
H719        H  0.32985095  0.26148640  0.92739917     0.09900
H720        H  0.36543416  0.29509037  0.93323677     0.08700
N721        N  0.33182405  0.25766947  0.13104217    -0.25700
N722        N  0.33880414  0.26382147  0.14309372    -0.33600
C723        C  0.33307363  0.25748321  0.15599521     0.02600
C724        C  0.32203026  0.24690369  0.15178251     0.08700
C725        C  0.32147471  0.24727146  0.13595033    -0.04400
H726        H  0.33670438  0.26036160  0.16754473     0.09300
H727        H  0.31414373  0.24048670  0.12852647     0.10500
Cu728      Cu  0.35585684  0.28045883  0.14162241     0.44200
Cu729      Cu  0.33662127  0.26335960  0.10841621     0.42000
Cu730      Cu  0.36661355  0.29132046  0.10299380     0.43900
N731        N  0.37259464  0.29674301  0.13670301    -0.33100
N732        N  0.37648849  0.30063680  0.12251976    -0.27300
C733        C  0.38755277  0.31141587  0.12307112    -0.03400
C734        C  0.39074502  0.31439412  0.13830230     0.08800
C735        C  0.38110997  0.30496443  0.14669146     0.02600
H736        H  0.39283099  0.31669813  0.11311229     0.10200
H737        H  0.38030688  0.30414149  0.15908212     0.09300
N738        N  0.35493470  0.28099874  0.08503444    -0.34500
N739        N  0.34384140  0.27077063  0.08696589    -0.26700
C740        C  0.33847012  0.26647009  0.07310041    -0.02000
C741        C  0.34662006  0.27441542  0.06203805     0.06700
C742        C  0.35694905  0.28349695  0.06991583     0.04700
H743        H  0.32931102  0.25824669  0.07125309     0.09900
H744        H  0.36525330  0.29139714  0.06505910     0.08700
N745        N  0.16323731  0.29234566  0.16800599    -0.25700
N746        N  0.15661117  0.28042269  0.16122966    -0.33600
C747        C  0.16223248  0.26738938  0.16743780     0.02600
C748        C  0.17280649  0.27139575  0.17859183     0.08700
C749        C  0.17320403  0.28723699  0.17866983    -0.04400
H750        H  0.15896275  0.25588880  0.16398009     0.09300
H751        H  0.18031076  0.29453655  0.18581933     0.10500
Cu752      Cu  0.14040496  0.28231969  0.14367225     0.44200
Cu753      Cu  0.15891847  0.31509583  0.16247595     0.42000
Cu754      Cu  0.13172347  0.32121634  0.13191487     0.43900
N755        N  0.12468745  0.28769855  0.12639964    -0.33100
N756        N  0.12162263  0.30199157  0.12216385    -0.27300
C757        C  0.11099371  0.30180407  0.11093754    -0.03400
C758        C  0.10720808  0.28669675  0.10796875     0.08800
C759        C  0.11604042  0.27800531  0.11793172     0.02600
H760        H  0.10629847  0.31193848  0.10544468     0.10200
H761        H  0.11611405  0.26560821  0.11903267     0.09300
N762        N  0.14275070  0.33891037  0.14339239    -0.34500
N763        N  0.15272570  0.33670515  0.15465817    -0.26700
C764        C  0.15758925  0.35044527  0.15986439    -0.02000
C765        C  0.15028853  0.36172241  0.15142627     0.06700
C766        C  0.14097856  0.35409932  0.14110575     0.04700
H767        H  0.16569644  0.35206795  0.16916520     0.09900
H768        H  0.13336483  0.35917710  0.13267239     0.08700
N769        N  0.16612910  0.55668120  0.16730605    -0.25700
N770        N  0.15938517  0.56849659  0.16047697    -0.33600
C771        C  0.16548052  0.58163033  0.16595057     0.02600
C772        C  0.17652904  0.57781895  0.17668152     0.08700
C773        C  0.17668872  0.56197311  0.17729602    -0.04400
H774        H  0.16198303  0.59306715  0.16250347     0.09300
H775        H  0.18378796  0.55480746  0.18458512     0.10500
Cu776      Cu  0.14196021  0.56630415  0.14431743     0.44200
Cu777      Cu  0.16048193  0.53389799  0.16315734     0.42000
Cu778      Cu  0.13044447  0.52735974  0.13525749     0.43900
N779        N  0.12494841  0.56090279  0.12848063    -0.33100
N780        N  0.12080664  0.54663444  0.12518664    -0.27300
C781        C  0.10970345  0.54693457  0.11443677    -0.03400
C782        C  0.10676051  0.56209180  0.11084947     0.08800
C783        C  0.11656276  0.57068894  0.11989935     0.02600
H784        H  0.10425402  0.53685876  0.10956669     0.10200
H785        H  0.11760329  0.58308849  0.12018698     0.09300
N786        N  0.14172631  0.50987453  0.14677456    -0.34500
N787        N  0.15272079  0.51221651  0.15702373    -0.26700
C788        C  0.15771895  0.49853792  0.16227239    -0.02000
C789        C  0.14942812  0.48716962  0.15493956     0.06700
C790        C  0.13942388  0.49466906  0.14520227     0.04700
H791        H  0.16676049  0.49701919  0.17068639     0.09900
H792        H  0.13115697  0.48949218  0.13747197     0.08700
N793        N  0.36716281  0.09445934  0.16503707    -0.25700
N794        N  0.35543044  0.08748553  0.15829358    -0.33600
C795        C  0.34222288  0.09318325  0.16401215     0.02600
C796        C  0.34589345  0.10420800  0.17482075     0.08700
C797        C  0.36173865  0.10476004  0.17522734    -0.04400
H798        H  0.33083370  0.08947561  0.16063052     0.09300
H799        H  0.36881941  0.11201850  0.18244328     0.10500
Cu800      Cu  0.35782403  0.07030315  0.14188650     0.44200
Cu801      Cu  0.39003021  0.08964307  0.16030503     0.42000
Cu802      Cu  0.39683308  0.05996907  0.13203373     0.43900
N803        N  0.36338549  0.05315083  0.12624426    -0.33100
N804        N  0.37770043  0.04941307  0.12269877    -0.27300
C805        C  0.37753694  0.03790871  0.11237899    -0.03400
C806        C  0.36241562  0.03427479  0.10933679     0.08800
C807        C  0.35369798  0.04409824  0.11824706     0.02600
H808        H  0.38767773  0.03262030  0.10747032     0.10200
H809        H  0.34128216  0.04465263  0.11888444     0.09300
N810        N  0.41420284  0.07178937  0.14312970    -0.34500
N811        N  0.41177719  0.08264191  0.15351044    -0.26700
C812        C  0.42541933  0.08773834  0.15875093    -0.02000
C813        C  0.43684260  0.07967571  0.15126061     0.06700
C814        C  0.42942083  0.06967141  0.14146913     0.04700
H815        H  0.42687123  0.09648101  0.16748682     0.09900
H816        H  0.43464762  0.06131783  0.13386732     0.08700
N817        N  0.63137231  0.09407508  0.16402922    -0.25700
N818        N  0.64329239  0.08694773  0.15780518    -0.33600
C819        C  0.65631738  0.09308420  0.16352398     0.02600
C820        C  0.65226633  0.10454940  0.17374903     0.08700
C821        C  0.63644101  0.10489718  0.17382132    -0.04400
H822        H  0.66781787  0.08927641  0.16067632     0.09300
H823        H  0.62911636  0.11221283  0.18072811     0.10500
Cu824      Cu  0.64115304  0.06879703  0.14236308     0.44200
Cu825      Cu  0.60869401  0.08836278  0.15995469     0.42000
Cu826      Cu  0.60177176  0.05630673  0.13512023     0.43900
N827        N  0.63525837  0.05097645  0.12752848    -0.33100
N828        N  0.62092231  0.04652195  0.12498513    -0.27300
C829        C  0.62093181  0.03497323  0.11471930    -0.03400
C830        C  0.63595140  0.03203936  0.11064874     0.08800
C831        C  0.64478805  0.04232808  0.11890723     0.02600
H832        H  0.61073170  0.02926672  0.11043820     0.10200
H833        H  0.65716754  0.04356033  0.11857923     0.09300
N834        N  0.58441283  0.06803741  0.14634469    -0.34500
N835        N  0.58696544  0.07993962  0.15545016    -0.26700
C836        C  0.57346145  0.08517221  0.16087429    -0.02000
C837        C  0.56196183  0.07607070  0.15485559     0.06700
C838        C  0.56920504  0.06534519  0.14569603     0.04700
H839        H  0.57214818  0.09491803  0.16850066     0.09900
H840        H  0.56384910  0.05636319  0.13894697     0.08700
N841        N  0.36685751  0.09408847  0.83508283    -0.25700
N842        N  0.35494014  0.08746300  0.84186251    -0.33600
C843        C  0.34189819  0.09357846  0.83618721     0.02600
C844        C  0.34590288  0.10450775  0.82539550     0.08700
C845        C  0.36173677  0.10456660  0.82493387    -0.04400
H846        H  0.33040433  0.09024913  0.83961237     0.09300
H847        H  0.36902164  0.11163490  0.81772824     0.10500
Cu848      Cu  0.35691050  0.07031098  0.85837279     0.44200
Cu849      Cu  0.38961029  0.08877642  0.83967650     0.42000
Cu850      Cu  0.39604243  0.05988709  0.86847831     0.43900
N851        N  0.36241120  0.05338523  0.87430776    -0.33100
N852        N  0.37670681  0.04965855  0.87796868    -0.27300
C853        C  0.37644108  0.03836547  0.88853320    -0.03400
C854        C  0.36128967  0.03485233  0.89162067     0.08800
C855        C  0.35265578  0.04453712  0.88246808     0.02600
H856        H  0.38654011  0.03313729  0.89358841     0.10200
H857        H  0.34024437  0.04515108  0.88179469     0.09300
N858        N  0.41368669  0.07113961  0.85705492    -0.34500
N859        N  0.41134211  0.08172279  0.84638510    -0.26700
C860        C  0.42501469  0.08664879  0.84104176    -0.02000
C861        C  0.43641460  0.07875852  0.84876488     0.06700
C862        C  0.42890894  0.06903408  0.85881147     0.04700
H863        H  0.42650670  0.09526414  0.83218330     0.09900
H864        H  0.43409325  0.06096824  0.86674603     0.08700
N865        N  0.63151884  0.09163525  0.83246105    -0.25700
N866        N  0.64341779  0.08473711  0.83897657    -0.33600
C867        C  0.65647250  0.09029987  0.83279526     0.02600
C868        C  0.65251258  0.10114789  0.82191628     0.08700
C869        C  0.63667154  0.10176049  0.82196105    -0.04400
H870        H  0.66794603  0.08664031  0.83593237     0.09300
H871        H  0.62940907  0.10894336  0.81485168     0.10500
Cu872      Cu  0.64138747  0.06784691  0.85569591     0.44200
Cu873      Cu  0.60880067  0.08683404  0.83780911     0.42000
Cu874      Cu  0.60246072  0.05603540  0.86494321     0.43900
N875        N  0.63615459  0.05098358  0.87173474    -0.33100
N876        N  0.62194786  0.04657361  0.87496427    -0.27300
C877        C  0.62241954  0.03571646  0.88597373    -0.03400
C878        C  0.63760956  0.03324505  0.88981392     0.08800
C879        C  0.64604944  0.04305502  0.88062328     0.02600
H880        H  0.61242550  0.03023562  0.89097605     0.10200
H881        H  0.65841171  0.04448862  0.88052034     0.09300
N882        N  0.58481853  0.06825471  0.85449493    -0.34500
N883        N  0.58714309  0.07962979  0.84465671    -0.26700
C884        C  0.57346307  0.08527460  0.84011732    -0.02000
C885        C  0.56207299  0.07703315  0.84747649     0.06700
C886        C  0.56959211  0.06634866  0.85648566     0.04700
H887        H  0.57195830  0.09462863  0.83204586     0.09900
H888        H  0.56441144  0.05782460  0.86393223     0.08700
N889        N  0.36808864  0.75907679  0.16796502    -0.25700
N890        N  0.35635973  0.76528549  0.16049267    -0.33600
C891        C  0.34319877  0.75906160  0.16575737     0.02600
C892        C  0.34691526  0.74849761  0.17699590     0.08700
C893        C  0.36271062  0.74876248  0.17815519    -0.04400
H894        H  0.33181771  0.76197147  0.16164898     0.09300
H895        H  0.36980205  0.74193260  0.18576744     0.10500
Cu896      Cu  0.35860169  0.78172614  0.14329980     0.44200
Cu897      Cu  0.39097375  0.76441496  0.16406509     0.42000
Cu898      Cu  0.39786245  0.79119540  0.13352031     0.43900
N899        N  0.36451142  0.79760215  0.12645463    -0.33100
N900        N  0.37892959  0.80087398  0.12285460    -0.27300
C901        C  0.37908219  0.81164229  0.11176897    -0.03400
C902        C  0.36407101  0.81530965  0.10827043     0.08800
C903        C  0.35507263  0.80625464  0.11772979     0.02600
H904        H  0.38937475  0.81656034  0.10678644     0.10200
H905        H  0.34264442  0.80605380  0.11834528     0.09300
N906        N  0.41528453  0.78119909  0.14626255    -0.34500
N907        N  0.41281715  0.77136313  0.15759534    -0.26700
C908        C  0.42642972  0.76700487  0.16355273    -0.02000
C909        C  0.43789452  0.77451233  0.15553030     0.06700
C910        C  0.43050186  0.78340143  0.14468393     0.04700
H911        H  0.42784037  0.75895179  0.17293671     0.09900
H912        H  0.43576228  0.79087810  0.13623577     0.08700
N913        N  0.63279310  0.75919862  0.16838870    -0.25700
N914        N  0.64477358  0.76539144  0.16131076    -0.33600
C915        C  0.65774870  0.75942521  0.16730571     0.02600
C916        C  0.65364261  0.74906740  0.17862675     0.08700
C917        C  0.63780465  0.74915830  0.17903123    -0.04400
H918        H  0.66927282  0.76235208  0.16362655     0.09300
H919        H  0.63043871  0.74239826  0.18644731     0.10500
Cu920      Cu  0.64300061  0.78147763  0.14364505     0.44200
Cu921      Cu  0.61009296  0.76439908  0.16346064     0.42000
Cu922      Cu  0.60406535  0.79125736  0.13259499     0.43900
N923        N  0.63772461  0.79679708  0.12600040    -0.33100
N924        N  0.62345338  0.80020083  0.12195216    -0.27300
C925        C  0.62377817  0.81041822  0.11034205    -0.03400
C926        C  0.63894415  0.81357812  0.10693707     0.08800
C927        C  0.64752731  0.80481073  0.11704538     0.02600
H928        H  0.61370121  0.81531469  0.10492347     0.10200
H929        H  0.65993238  0.80437873  0.11793581     0.09300
N930        N  0.58630250  0.78148427  0.14516145    -0.34500
N931        N  0.58850004  0.77161604  0.15652686    -0.26700
C932        C  0.57477586  0.76747065  0.16236928    -0.02000
C933        C  0.56349735  0.77513177  0.15425570     0.06700
C934        C  0.57112136  0.78390269  0.14345271     0.04700
H935        H  0.57316589  0.75948581  0.17178084     0.09900
H936        H  0.56604435  0.79146713  0.13497408     0.08700
N937        N  0.83253064  0.29230573  0.16735915    -0.25700
N938        N  0.83850494  0.28005793  0.16055917    -0.33600
C939        C  0.83240094  0.26733261  0.16692084     0.02600
C940        C  0.82218254  0.27188562  0.17817228     0.08700
C941        C  0.82249789  0.28771703  0.17818954    -0.04400
H942        H  0.83525557  0.25567178  0.16363888     0.09300
H943        H  0.81601277  0.29536125  0.18556406     0.10500
Cu944      Cu  0.85487587  0.28102302  0.14315317     0.44200
Cu945      Cu  0.83831947  0.31479043  0.16223701     0.42000
Cu946      Cu  0.86753894  0.31953762  0.13377745     0.43900
N947        N  0.87144218  0.28582989  0.12659365    -0.33100
N948        N  0.87597229  0.29998426  0.12331549    -0.27300
C949        C  0.88686065  0.29945802  0.11238238    -0.03400
C950        C  0.88929397  0.28427971  0.10861485     0.08800
C951        C  0.87938760  0.27586978  0.11776827     0.02600
H952        H  0.89262035  0.30940938  0.10760973     0.10200
H953        H  0.87810209  0.26349355  0.11807621     0.09300
N954        N  0.85777752  0.33773344  0.14545643    -0.34500
N955        N  0.84688549  0.33604440  0.15592326    -0.26700
C956        C  0.84289984  0.34997051  0.16135811    -0.02000
C957        C  0.85177880  0.36081222  0.15391640     0.06700
C958        C  0.86106006  0.35275555  0.14391696     0.04700
H959        H  0.83419383  0.35201106  0.17001325     0.09900
H960        H  0.86950495  0.35742730  0.13605569     0.08700
N961        N  0.83219412  0.55456197  0.16440380    -0.25700
N962        N  0.83788848  0.56676871  0.15730774    -0.33600
C963        C  0.83149386  0.57950905  0.16331472     0.02600
C964        C  0.82135751  0.57502600  0.17466389     0.08700
C965        C  0.82202988  0.55919549  0.17510165    -0.04400
H966        H  0.83418386  0.59114484  0.15980431     0.09300
H967        H  0.81577414  0.55160336  0.18272904     0.10500
Cu968      Cu  0.85453969  0.56570176  0.14024316     0.44200
Cu969      Cu  0.83883349  0.53220031  0.15976673     0.42000
Cu970      Cu  0.86968310  0.52774704  0.13241801     0.43900
N971        N  0.87197600  0.56145612  0.12451283    -0.33100
N972        N  0.87756846  0.54756103  0.12182865    -0.27300
C973        C  0.88885933  0.54859404  0.11132418    -0.03400
C974        C  0.89041602  0.56383493  0.10725160     0.08800
C975        C  0.87957862  0.57172831  0.11575340     0.02600
H976        H  0.89543821  0.53895388  0.10700296     0.10200
H977        H  0.87741138  0.58398367  0.11565663     0.09300
N978        N  0.85937784  0.50949884  0.14371150    -0.34500
N979        N  0.84797512  0.51112095  0.15364761    -0.26700
C980        C  0.84364022  0.49716033  0.15870955    -0.02000
C981        C  0.85278624  0.48634336  0.15159495     0.06700
C982        C  0.86262665  0.49445784  0.14217213     0.04700
H983        H  0.83448153  0.49507686  0.16687579     0.09900
H984        H  0.87139951  0.48980974  0.13466838     0.08700
N985        N  0.83196488  0.09181621  0.36827238    -0.25700
N986        N  0.83967922  0.08592633  0.35653809    -0.33600
C987        C  0.83429050  0.09211151  0.34341040     0.02600
C988        C  0.82270863  0.10229471  0.34715488     0.08700
C989        C  0.82149192  0.10186704  0.36294193    -0.04400
H990        H  0.83843716  0.08931811  0.33201533     0.09300
H991        H  0.81356646  0.10831219  0.37005045     0.10500
Cu992      Cu  0.85700192  0.06954832  0.35872776     0.44200
Cu993      Cu  0.83577073  0.08617928  0.39105640     0.42000
Cu994      Cu  0.86628722  0.05916922  0.39781397     0.43900
N995        N  0.87340132  0.05307632  0.36445497    -0.33100
N996        N  0.87674874  0.04940381  0.37883451    -0.27300
C997        C  0.88754884  0.03834545  0.37888970    -0.03400
C998        C  0.89114982  0.03490483  0.36384651     0.08800
C999        C  0.88202807  0.04440039  0.35494030     0.02600
H1000       H  0.89233592  0.03315066  0.38913623     0.10200
H1001       H  0.88162147  0.04492678  0.34251472     0.09300
N1002       N  0.85378894  0.06942879  0.41522799    -0.34500
N1003       N  0.84244213  0.07925409  0.41279165    -0.26700
C1004       C  0.83665496  0.08377745  0.42640875    -0.02000
C1005       C  0.84481006  0.07640256  0.43783621     0.06700
C1006       C  0.85556314  0.06741728  0.43044317     0.04700
H1007       H  0.82731825  0.09187921  0.42784321     0.09900
H1008       H  0.86407678  0.06001163  0.43569317     0.08700
N1009       N  0.83450076  0.09247168  0.63240936    -0.25700
N1010       N  0.84177190  0.08622321  0.64423938    -0.33600
C1011       C  0.83614963  0.09230452  0.65732529     0.02600
C1012       C  0.82488521  0.10280680  0.65344784     0.08700
C1013       C  0.82410179  0.10265874  0.63762614    -0.04400
H1014       H  0.83988170  0.08918791  0.66877974     0.09300
H1015       H  0.81644299  0.10931432  0.63041903     0.10500
Cu1016     Cu  0.85876812  0.06945501  0.64214407     0.44200
Cu1017     Cu  0.83849890  0.08677205  0.60967531     0.42000
Cu1018     Cu  0.86680536  0.05736041  0.60318742     0.43900
N1019       N  0.87508042  0.05281797  0.63654102    -0.33100
N1020       N  0.87789861  0.04848834  0.62222926    -0.27300
C1021       C  0.88891853  0.03765590  0.62224975    -0.03400
C1022       C  0.89323008  0.03504641  0.63726561     0.08800
C1023       C  0.88428917  0.04479197  0.64608824     0.02600
H1024       H  0.89342943  0.03210092  0.61206750     0.10200
H1025       H  0.88443721  0.04596491  0.65847497     0.09300
N1026       N  0.85468628  0.06793228  0.58570778    -0.34500
N1027       N  0.84430596  0.07879321  0.58805509    -0.26700
C1028       C  0.83871540  0.08347890  0.57441712    -0.02000
C1029       C  0.84596472  0.07511727  0.56306628     0.06700
C1030       C  0.85600611  0.06538743  0.57052323     0.04700
H1031       H  0.83014573  0.09237633  0.57291071     0.09900
H1032       H  0.86380029  0.05718884  0.56533535     0.08700
N1033       N  0.16917936  0.76084775  0.36818801    -0.25700
N1034       N  0.16218284  0.76653253  0.35591244    -0.33600
C1035       C  0.16868956  0.76054350  0.34320860     0.02600
C1036       C  0.18026849  0.75069389  0.34776358     0.08700
C1037       C  0.18029491  0.75109777  0.36361465    -0.04400
H1038       H  0.16522432  0.76316650  0.33154779     0.09300
H1039       H  0.18780526  0.74479050  0.37127579     0.10500
Cu1040     Cu  0.14416027  0.78224726  0.35678135     0.44200
Cu1041     Cu  0.16357368  0.76652764  0.39066956     0.42000
Cu1042     Cu  0.13338792  0.79438724  0.39508619     0.43900
N1043       N  0.12681122  0.79812521  0.36117683    -0.33100
N1044       N  0.12299140  0.80249798  0.37524243    -0.27300
C1045       C  0.11167634  0.81299123  0.37439747    -0.03400
C1046       C  0.10822502  0.81532654  0.35910893     0.08800
C1047       C  0.11798724  0.80577434  0.35097522     0.02600
H1048       H  0.10648129  0.81862235  0.38420403     0.10200
H1049       H  0.11876085  0.80459078  0.33861198     0.09300
N1050       N  0.14485156  0.78453368  0.41350475    -0.34500
N1051       N  0.15591554  0.77422100  0.41190578    -0.26700
C1052       C  0.16066203  0.76969477  0.42592733    -0.02000
C1053       C  0.15215862  0.77756684  0.43677367     0.06700
C1054       C  0.14225200  0.78686894  0.42857803     0.04700
H1055       H  0.16945925  0.76114929  0.42803582     0.09900
H1056       H  0.13361858  0.79455548  0.43318839     0.08700
N1057       N  0.16638079  0.75682410  0.63171016    -0.25700
N1058       N  0.15928213  0.76279241  0.64378015    -0.33600
C1059       C  0.16504845  0.75641306  0.65666266     0.02600
C1060       C  0.17624125  0.74597375  0.65242347     0.08700
C1061       C  0.17683531  0.74650413  0.63658105    -0.04400
H1062       H  0.16130884  0.75912761  0.66821708     0.09300
H1063       H  0.18423767  0.73983827  0.62912266     0.10500
Cu1064     Cu  0.14190136  0.77914443  0.64215566     0.44200
Cu1065     Cu  0.16138027  0.76263132  0.60910989     0.42000
Cu1066     Cu  0.13082125  0.79023360  0.60345914     0.43900
N1067       N  0.12485220  0.79520802  0.63733326    -0.33100
N1068       N  0.12082581  0.79921206  0.62320958    -0.27300
C1069       C  0.10976304  0.81000556  0.62398524    -0.03400
C1070       C  0.10671481  0.81288040  0.63929033     0.08800
C1071       C  0.11644173  0.80336158  0.64747189     0.02600
H1072       H  0.10450275  0.81549491  0.61413205     0.10200
H1073       H  0.11749775  0.80255587  0.65984449     0.09300
N1074       N  0.14273274  0.77986415  0.58554104    -0.34500
N1075       N  0.15395312  0.76979179  0.58759366    -0.26700
C1076       C  0.15925865  0.76524333  0.57377326    -0.02000
C1077       C  0.15095736  0.77284257  0.56258056     0.06700
C1078       C  0.14059759  0.78200206  0.57036587     0.04700
H1079       H  0.16842942  0.75701211  0.57203978     0.09900
H1080       H  0.13212156  0.78963957  0.56539505     0.08700
N1081       N  0.83140419  0.29427310  0.83122799    -0.25700
N1082       N  0.83845362  0.28213672  0.83714080    -0.33600
C1083       C  0.83253681  0.26930645  0.83080238     0.02600
C1084       C  0.82129531  0.27364997  0.82047340     0.08700
C1085       C  0.82083291  0.28948911  0.82099538    -0.04400
H1086       H  0.83610634  0.25771111  0.83358156     0.09300
H1087       H  0.81334259  0.29700055  0.81448773     0.10500
Cu1088     Cu  0.85560198  0.28342145  0.85375340     0.44200
Cu1089     Cu  0.83617726  0.31686324  0.83724781     0.42000
Cu1090     Cu  0.86488984  0.32184348  0.86661466     0.43900
N1091       N  0.87184882  0.28810238  0.87065202    -0.33100
N1092       N  0.87512028  0.30220727  0.87533546    -0.27300
C1093       C  0.88590252  0.30151386  0.88638675    -0.03400
C1094       C  0.88955635  0.28627305  0.88875150     0.08800
C1095       C  0.88050201  0.27802528  0.87863425     0.02600
H1096       H  0.89070285  0.31138790  0.89225075     0.10200
H1097       H  0.88018522  0.26566780  0.87718696     0.09300
N1098       N  0.85360221  0.33998379  0.85613970    -0.34500
N1099       N  0.84307364  0.33823569  0.84530375    -0.26700
C1100       C  0.83813929  0.35220315  0.84077659    -0.02000
C1101       C  0.84597086  0.36314063  0.84921846     0.06700
C1102       C  0.85566293  0.35507081  0.85882238     0.04700
H1103       H  0.82957283  0.35421067  0.83197678     0.09900
H1104       H  0.86368619  0.35978485  0.86708596     0.08700
N1105       N  0.83462339  0.55796931  0.83228536    -0.25700
N1106       N  0.84133432  0.57007280  0.83864524    -0.33600
C1107       C  0.83550091  0.58295408  0.83235350     0.02600
C1108       C  0.82467612  0.57869189  0.82157255     0.08700
C1109       C  0.82435990  0.56283746  0.82177853    -0.04400
H1110       H  0.83889566  0.59452971  0.83542205     0.09300
H1111       H  0.81719027  0.55537610  0.81486363     0.10500
Cu1112     Cu  0.85819910  0.56874657  0.85549913     0.44200
Cu1113     Cu  0.83942955  0.53532936  0.83813782     0.42000
Cu1114     Cu  0.86812056  0.53034034  0.86765889     0.43900
N1115       N  0.87513152  0.56408447  0.87167520    -0.33100
N1116       N  0.87873779  0.54997079  0.87607350    -0.27300
C1117       C  0.89013752  0.55068341  0.88650156    -0.03400
C1118       C  0.89384619  0.56594798  0.88872850     0.08800
C1119       C  0.88415584  0.57417742  0.87920928     0.02600
H1120       H  0.89530891  0.54081346  0.89204652     0.10200
H1121       H  0.88367345  0.58654024  0.87785071     0.09300
N1122       N  0.85651003  0.51220705  0.85740708    -0.34500
N1123       N  0.84604529  0.51397496  0.84650711    -0.26700
C1124       C  0.84088596  0.50003006  0.84216368    -0.02000
C1125       C  0.84849005  0.48907151  0.85078103     0.06700
C1126       C  0.85829477  0.49711486  0.86030745     0.04700
H1127       H  0.83231807  0.49804612  0.83335910     0.09900
H1128       H  0.86621965  0.49237730  0.86865119     0.08700
N1129       N  0.83575426  0.75509797  0.36664803    -0.25700
N1130       N  0.84195165  0.76239255  0.35479956    -0.33600
C1131       C  0.83610544  0.75654235  0.34170069     0.02600
C1132       C  0.82581829  0.74506826  0.34556299     0.08700
C1133       C  0.82584005  0.74443043  0.36140794    -0.04400
H1134       H  0.83913796  0.76035730  0.33024887     0.09300
H1135       H  0.81914117  0.73681216  0.36862132     0.10500
Cu1136     Cu  0.85829209  0.77977933  0.35691665     0.44200
Cu1137     Cu  0.84086083  0.75977480  0.38949623     0.42000
Cu1138     Cu  0.87038119  0.78781582  0.39609033     0.43900
N1139       N  0.87516243  0.79579808  0.36260397    -0.33100
N1140       N  0.87962219  0.79848556  0.37690687    -0.27300
C1141       C  0.89071172  0.80925802  0.37683056    -0.03400
C1142       C  0.89333187  0.81354320  0.36180231     0.08800
C1143       C  0.88332972  0.80485351  0.35302803     0.02600
H1144       H  0.89637299  0.81368515  0.38699089     0.10200
H1145       H  0.88205967  0.80508257  0.34065159     0.09300
N1146       N  0.85884977  0.77667215  0.41369864    -0.34500
N1147       N  0.84788420  0.76640150  0.41132472    -0.26700
C1148       C  0.84244318  0.76157415  0.42500130    -0.02000
C1149       C  0.85042249  0.76919746  0.43642201     0.06700
C1150       C  0.86070863  0.77866907  0.42892184     0.04700
H1151       H  0.83331389  0.75324439  0.42648505     0.09900
H1152       H  0.86883918  0.78653591  0.43411124     0.08700
N1153       N  0.83680854  0.75637417  0.63150736    -0.25700
N1154       N  0.84306615  0.76347040  0.64343062    -0.33600
C1155       C  0.83746352  0.75726672  0.65647366     0.02600
C1156       C  0.82726954  0.74574950  0.65249803     0.08700
C1157       C  0.82708282  0.74547249  0.63663555    -0.04400
H1158       H  0.84056839  0.76089876  0.66796342     0.09300
H1159       H  0.82034457  0.73796864  0.62934321     0.10500
Cu1160     Cu  0.85909751  0.78112810  0.64138673     0.44200
Cu1161     Cu  0.84166924  0.76183092  0.60878402     0.42000
Cu1162     Cu  0.87039059  0.79127450  0.60247002     0.43900
N1163       N  0.87557072  0.79770677  0.63622023    -0.33100
N1164       N  0.87976386  0.80124937  0.62202037    -0.27300
C1165       C  0.89065022  0.81223421  0.62255034    -0.03400
C1166       C  0.89338717  0.81575081  0.63777175     0.08800
C1167       C  0.88368774  0.80638170  0.64616832     0.02600
H1168       H  0.89610191  0.81731549  0.61258069     0.10200
H1169       H  0.88258455  0.80589356  0.65855355     0.09300
N1170       N  0.85884119  0.78010626  0.58482016    -0.34500
N1171       N  0.84831216  0.76935949  0.58713034    -0.26700
C1172       C  0.84297613  0.76448930  0.57343955    -0.02000
C1173       C  0.85052377  0.77257722  0.56205943     0.06700
C1174       C  0.86048772  0.78236670  0.56959762     0.04700
H1175       H  0.83427950  0.75571583  0.57191715     0.09900
H1176       H  0.86835357  0.79051727  0.56443429     0.08700
N1177       N  0.36882178  0.75665773  0.83591386    -0.25700
N1178       N  0.35698234  0.76398813  0.84207301    -0.33600
C1179       C  0.34390719  0.75875085  0.83565653     0.02600
C1180       C  0.34775794  0.74764201  0.82500821     0.08700
C1181       C  0.36357973  0.74655629  0.82542437    -0.04400
H1182       H  0.33247913  0.76273245  0.83856005     0.09300
H1183       H  0.37076599  0.73900568  0.81862748     0.10500
Cu1184     Cu  0.35894351  0.78073692  0.85895180     0.44200
Cu1185     Cu  0.39161632  0.76066544  0.84185506     0.42000
Cu1186     Cu  0.39758668  0.78909735  0.87153210     0.43900
N1187       N  0.36407067  0.79686264  0.87576131    -0.33100
N1188       N  0.37825429  0.79983734  0.88039325    -0.27300
C1189       C  0.37782145  0.81079691  0.89129388    -0.03400
C1190       C  0.36266464  0.81486008  0.89357749     0.08800
C1191       C  0.35420996  0.80586689  0.88359955     0.02600
H1192       H  0.38780751  0.81547792  0.89706200     0.10200
H1193       H  0.34185504  0.80586850  0.88210516     0.09300
N1194       N  0.41534047  0.77756867  0.86059835    -0.34500
N1195       N  0.41322743  0.76717036  0.84969335    -0.26700
C1196       C  0.42703201  0.76203962  0.84489345    -0.02000
C1197       C  0.43825106  0.76960170  0.85320956     0.06700
C1198       C  0.43051016  0.77934091  0.86304123     0.04700
H1199       H  0.42874258  0.75348873  0.83601597     0.09900
H1200       H  0.43550120  0.78716977  0.87132899     0.08700
N1201       N  0.63308785  0.75437590  0.83727489    -0.25700
N1202       N  0.64502679  0.76232587  0.84237836    -0.33600
C1203       C  0.65788802  0.75697037  0.83565117     0.02600
C1204       C  0.65376790  0.74514619  0.82591638     0.08700
C1205       C  0.63802824  0.74375858  0.82717185    -0.04400
H1206       H  0.66932601  0.76148419  0.83757824     0.09300
H1207       H  0.63067066  0.73579194  0.82106425     0.10500
Cu1208     Cu  0.64337590  0.78044311  0.85780367     0.44200
Cu1209     Cu  0.61052424  0.75865167  0.84357565     0.42000
Cu1210     Cu  0.60467547  0.79166864  0.86797651     0.43900
N1211       N  0.63839616  0.79842621  0.87265415    -0.33100
N1212       N  0.62420140  0.80256965  0.87623993    -0.27300
C1213       C  0.62475338  0.81438579  0.88619453    -0.03400
C1214       C  0.63999020  0.81779225  0.88895981     0.08800
C1215       C  0.64838085  0.80750694  0.88025496     0.02600
H1216       H  0.61479427  0.81992583  0.89119485     0.10200
H1217       H  0.66077284  0.80656127  0.87960341     0.09300
N1218       N  0.58687150  0.77848595  0.85915898    -0.34500
N1219       N  0.58900474  0.76625969  0.85036192    -0.26700
C1220       C  0.57523709  0.76027306  0.84658791    -0.02000
C1221       C  0.56399895  0.76919538  0.85335666     0.06700
C1222       C  0.57169207  0.78062470  0.86122356     0.04700
H1223       H  0.57356786  0.75026555  0.83938068     0.09900
H1224       H  0.56666262  0.78983717  0.86790962     0.08700
C1225       C  0.25788488  0.66940941  0.76322696     0.03900
C1226       C  0.24499286  0.66220040  0.75654360     0.03900
C1227       C  0.23851689  0.66817715  0.74293807     0.03900
C1228       C  0.24469131  0.68158762  0.73620843     0.03900
C1229       C  0.25765648  0.68875231  0.74284233     0.03900
C1230       C  0.26412946  0.68277354  0.75647021     0.03900
C1231       C  0.74437677  0.68916197  0.74289767     0.03900
C1232       C  0.75761102  0.68251922  0.73629537     0.03900
C1233       C  0.76411641  0.66923379  0.74291826     0.03900
C1234       C  0.75774932  0.66290727  0.75640869     0.03900
C1235       C  0.74463644  0.66965108  0.76309618     0.03900
C1236       C  0.73800779  0.68284077  0.75640538     0.03900
C1237       C  0.73780492  0.68032968  0.24185434     0.03900
C1238       C  0.74448068  0.66727922  0.23492469     0.03900
C1239       C  0.75784160  0.66067801  0.24132482     0.03900
C1240       C  0.76437312  0.66696607  0.25476230     0.03900
C1241       C  0.75782472  0.68013612  0.26157458     0.03900
C1242       C  0.74437113  0.68663184  0.25527931     0.03900
C1243       C  0.75631871  0.16795046  0.73671919     0.03900
C1244       C  0.74290250  0.16148878  0.74310748     0.03900
C1245       C  0.73595703  0.16836483  0.75604686     0.03900
C1246       C  0.74208343  0.18204844  0.76224736     0.03900
C1247       C  0.75540574  0.18862020  0.75572112     0.03900
C1248       C  0.76249966  0.18158263  0.74294586     0.03900
N1249       N  0.16681261  0.29357388  0.83372560    -0.25700
N1250       N  0.15941734  0.28175701  0.83986017    -0.33600
C1251       C  0.16489861  0.26864973  0.83370189     0.02600
C1252       C  0.17621664  0.27247754  0.82324765     0.08700
C1253       C  0.17717836  0.28830496  0.82351940    -0.04400
H1254       H  0.16091098  0.25722166  0.83660964     0.09300
H1255       H  0.18480143  0.29548407  0.81678940     0.10500
Cu1256     Cu  0.14212204  0.28390831  0.85622402     0.44200
Cu1257     Cu  0.16250255  0.31639212  0.83920689     0.42000
Cu1258     Cu  0.13263727  0.32292502  0.86718935     0.43900
N1259       N  0.12522530  0.28939436  0.87221376    -0.33100
N1260       N  0.12182885  0.30369011  0.87617690    -0.27300
C1261       C  0.11050812  0.30347275  0.88670654    -0.03400
C1262       C  0.10661809  0.28834844  0.88945254     0.08800
C1263       C  0.11612413  0.27967733  0.88014406     0.02600
H1264       H  0.10553567  0.31358401  0.89199124     0.10200
H1265       H  0.11646131  0.26726961  0.87922687     0.09300
N1266       N  0.14472064  0.34047695  0.85653744    -0.34500
N1267       N  0.15569905  0.33813997  0.84626939    -0.26700
C1268       C  0.16111057  0.35183557  0.84146041    -0.02000
C1269       C  0.15311445  0.36322214  0.84910613     0.06700
C1270       C  0.14283632  0.35569346  0.85855176     0.04700
H1271       H  0.17011230  0.35335485  0.83300159     0.09900
H1272       H  0.13455047  0.36086187  0.86626587     0.08700
N1273       N  0.16951281  0.55851621  0.83540962    -0.25700
N1274       N  0.16248417  0.57045969  0.84172156    -0.33600
C1275       C  0.16831151  0.58348771  0.83571224     0.02600
C1276       C  0.17947610  0.57948032  0.82517308     0.08700
C1277       C  0.17997877  0.56363030  0.82522458    -0.04400
H1278       H  0.16463362  0.59498249  0.83875252     0.09300
H1279       H  0.18734584  0.55633182  0.81834588     0.10500
Cu1280     Cu  0.14511534  0.56864243  0.85801241     0.44200
Cu1281     Cu  0.16461911  0.53572919  0.84060208     0.42000
Cu1282     Cu  0.13414171  0.52970369  0.86785126     0.43900
N1283       N  0.12782666  0.56333737  0.87360413    -0.33100
N1284       N  0.12383047  0.54906635  0.87707230    -0.27300
C1285       C  0.11250608  0.54938023  0.88758491    -0.03400
C1286       C  0.10926569  0.56454106  0.89085984     0.08800
C1287       C  0.11912735  0.57314042  0.88185872     0.02600
H1288       H  0.10719581  0.53930385  0.89260883     0.10200
H1289       H  0.12005607  0.58554607  0.88145362     0.09300
N1290       N  0.14608676  0.51191487  0.85749922    -0.34500
N1291       N  0.15732576  0.51406074  0.84747682    -0.26700
C1292       C  0.16263101  0.50026921  0.84283557    -0.02000
C1293       C  0.15429833  0.48902361  0.85034663     0.06700
C1294       C  0.14392326  0.49673557  0.85952885     0.04700
H1295       H  0.17178973  0.49858776  0.83457991     0.09900
H1296       H  0.13538650  0.49171950  0.86707263     0.08700
C1297       C  0.23663935  0.18191549  0.74389018     0.03900
C1298       C  0.24314020  0.18853077  0.75718299     0.03900
C1299       C  0.25677925  0.18238051  0.76339638     0.03900
C1300       C  0.26378836  0.16953643  0.75640793     0.03900
C1301       C  0.25734104  0.16299170  0.74305787     0.03900
C1302       C  0.24361780  0.16904005  0.73694444     0.03900
C1303       C  0.25541949  0.66935164  0.23581383     0.03900
C1304       C  0.24221803  0.66271548  0.24252839     0.03900
C1305       C  0.23590913  0.66908619  0.25605913     0.03900
C1306       C  0.24255601  0.68233929  0.26262860     0.03900
C1307       C  0.25576640  0.68893388  0.25594593     0.03900
C1308       C  0.26207540  0.68256696  0.24244457     0.03900
C1309       C  0.75570838  0.16707700  0.26244369     0.03900
C1310       C  0.74212423  0.16104475  0.25598529     0.03900
C1311       C  0.73552733  0.16806136  0.24295502     0.03900
C1312       C  0.74236695  0.18128790  0.23656237     0.03900
C1313       C  0.75582492  0.18744722  0.24314585     0.03900
C1314       C  0.76239259  0.18044682  0.25618965     0.03900
N1315       N  0.16882228  0.08980625  0.36793466    -0.25700
N1316       N  0.16139812  0.08370180  0.35613218    -0.33600
C1317       C  0.16655623  0.09017503  0.34305702     0.02600
C1318       C  0.17770134  0.10079016  0.34690126     0.08700
C1319       C  0.17889783  0.10031012  0.36269667    -0.04400
H1320       H  0.16248561  0.08735069  0.33164184     0.09300
H1321       H  0.18648004  0.10708618  0.36987228     0.10500
Cu1322     Cu  0.14461274  0.06687490  0.35824774     0.44200
Cu1323     Cu  0.16490912  0.08388778  0.39065668     0.42000
Cu1324     Cu  0.13528230  0.05571619  0.39724215     0.43900
N1325       N  0.12842240  0.05022608  0.36372245    -0.33100
N1326       N  0.12503128  0.04624040  0.37800997    -0.27300
C1327       C  0.11416882  0.03524680  0.37777416    -0.03400
C1328       C  0.11061415  0.03220221  0.36263987     0.08800
C1329       C  0.11978805  0.04184113  0.35398355     0.02600
H1330       H  0.10923575  0.02990822  0.38787872     0.10200
H1331       H  0.12015407  0.04274231  0.34157770     0.09300
N1332       N  0.14734599  0.06637557  0.41472028    -0.34500
N1333       N  0.15829500  0.07666685  0.41234853    -0.26700
C1334       C  0.16370122  0.08152867  0.42600693    -0.02000
C1335       C  0.15573086  0.07388132  0.43739420     0.06700
C1336       C  0.14546933  0.06438800  0.42992972     0.04700
H1337       H  0.17260698  0.09009575  0.42749649     0.09900
H1338       H  0.13714988  0.05672519  0.43512928     0.08700
N1339       N  0.16729989  0.09289454  0.63182838    -0.25700
N1340       N  0.16000363  0.08708074  0.64386328    -0.33600
C1341       C  0.16572286  0.09343646  0.65675800     0.02600
C1342       C  0.17708851  0.10367722  0.65255806     0.08700
C1343       C  0.17783834  0.10309641  0.63673971    -0.04400
H1344       H  0.16191994  0.09074244  0.66829812     0.09300
H1345       H  0.18548430  0.10954621  0.62933157     0.10500
Cu1346     Cu  0.14268775  0.07072389  0.64237861     0.44200
Cu1347     Cu  0.16279490  0.08688634  0.60922791     0.42000
Cu1348     Cu  0.13251942  0.05936715  0.60368335     0.43900
N1349       N  0.12594562  0.05447704  0.63736999    -0.33100
N1350       N  0.12227576  0.05043674  0.62316986    -0.27300
C1351       C  0.11134072  0.03953341  0.62365590    -0.03400
C1352       C  0.10801573  0.03659674  0.63885896     0.08800
C1353       C  0.11741220  0.04620869  0.64730926     0.02600
H1354       H  0.10634811  0.03403140  0.61367165     0.10200
H1355       H  0.11814295  0.04702235  0.65970466     0.09300
N1356       N  0.14449043  0.06936126  0.58576343    -0.34500
N1357       N  0.15569806  0.07944791  0.58775371    -0.26700
C1358       C  0.16109345  0.08379558  0.57391680    -0.02000
C1359       C  0.15283407  0.07603805  0.56281312     0.06700
C1360       C  0.14242423  0.06699453  0.57063094     0.04700
H1361       H  0.17026944  0.09201035  0.57211153     0.09900
H1362       H  0.13395698  0.05930152  0.56572724     0.08700
C1363       C  0.25559038  0.16236354  0.25667156     0.03900
C1364       C  0.24223607  0.16897499  0.26306000     0.03900
C1365       C  0.23584251  0.18233363  0.25647166     0.03900
C1366       C  0.24245680  0.18875806  0.24314220     0.03900
C1367       C  0.25575788  0.18209165  0.23669902     0.03900
C1368       C  0.26224808  0.16881167  0.24337625     0.03900
C1369       C  0.20236307  0.12774922  0.31748736     0.18600
C1370       C  0.21740174  0.12352951  0.31353111    -0.10500
C1371       C  0.22582975  0.13250965  0.30319162    -0.11300
C1372       C  0.21926789  0.14576535  0.29680640     0.20200
C1373       C  0.20424903  0.15002452  0.30079950    -0.13400
C1374       C  0.19581015  0.14103161  0.31113065    -0.11700
C1375       C  0.22774107  0.15464773  0.28573710     0.01100
C1376       C  0.23458397  0.16153074  0.27585005    -0.31700
C1377       C  0.19361729  0.11835297  0.32791959     0.02500
C1378       C  0.18632531  0.11036587  0.33658585    -0.33400
H1379       H  0.22256088  0.11326105  0.31835312     0.13600
H1380       H  0.23738626  0.12905228  0.30007565     0.13400
H1381       H  0.19904000  0.16020137  0.29584243     0.13300
H1382       H  0.18417554  0.14437410  0.31408850     0.12300
C1383       C  0.15670297  0.07797502  0.51616701     0.18600
C1384       C  0.14713257  0.08774390  0.50764855    -0.10500
C1385       C  0.14771124  0.08756427  0.49158279    -0.11300
C1386       C  0.15786200  0.07761689  0.48399363     0.20200
C1387       C  0.16752929  0.06795051  0.49251414    -0.13400
C1388       C  0.16695112  0.06813037  0.50857801    -0.11700
C1389       C  0.15788543  0.07685981  0.46748922     0.01100
C1390       C  0.15727823  0.07574061  0.45370211    -0.31700
C1391       C  0.15570543  0.07772867  0.53266055     0.02500
C1392       C  0.15457530  0.07714889  0.54645101    -0.33400
H1393       H  0.13912795  0.09535766  0.51341322     0.13600
H1394       H  0.14013044  0.09502411  0.48508841     0.13400
H1395       H  0.17535840  0.06015909  0.48674585     0.13300
H1396       H  0.17435732  0.06049268  0.51506657     0.12300
C1397       C  0.20362540  0.12930364  0.68151301     0.18600
C1398       C  0.21504425  0.12203262  0.69024947    -0.10500
C1399       C  0.22379209  0.13052681  0.70072852    -0.11300
C1400       C  0.22119225  0.14633310  0.70247304     0.20200
C1401       C  0.20988950  0.15364334  0.69361869    -0.13400
C1402       C  0.20111286  0.14513972  0.68315822    -0.11700
C1403       C  0.22966197  0.15487240  0.71381424     0.01100
C1404       C  0.23629713  0.16159683  0.72395032    -0.31700
C1405       C  0.19429747  0.12044752  0.67111589     0.02500
C1406       C  0.18642458  0.11286089  0.66260269    -0.33400
H1407       H  0.21705966  0.10978910  0.68908512     0.13600
H1408       H  0.23242231  0.12474568  0.70760701     0.13400
H1409       H  0.20775936  0.16585024  0.69492175     0.13300
H1410       H  0.19229432  0.15086786  0.67647278     0.12300
C1411       C  0.21991757  0.22241824  0.78011574     0.18600
C1412       C  0.20810152  0.23076102  0.77300037    -0.10500
C1413       C  0.19925190  0.24112259  0.78157704    -0.11300
C1414       C  0.20217771  0.24316592  0.79730140     0.20200
C1415       C  0.21408235  0.23491804  0.80436451    -0.13400
C1416       C  0.22291282  0.22456070  0.79579920    -0.11700
C1417       C  0.19287937  0.25354461  0.80626206     0.01100
C1418       C  0.18519908  0.26214650  0.81397608    -0.31700
C1419       C  0.22857250  0.21121664  0.77153407     0.02500
C1420       C  0.23545797  0.20124182  0.76479264    -0.33400
H1421       H  0.20562967  0.22913239  0.76089698     0.13600
H1422       H  0.19007000  0.24742973  0.77599355     0.13400
H1423       H  0.21644225  0.23639000  0.81651013     0.13300
H1424       H  0.23193842  0.21809018  0.80143827     0.12300
C1425       C  0.15628721  0.44224032  0.84727959     0.18600
C1426       C  0.16990063  0.43406784  0.84447874    -0.10500
C1427       C  0.16972510  0.41796141  0.84417129    -0.11300
C1428       C  0.15593595  0.40998044  0.84666386     0.20200
C1429       C  0.14232870  0.41816850  0.84938180    -0.13400
C1430       C  0.14250407  0.43424493  0.84968995    -0.11700
C1431       C  0.15570989  0.39341634  0.84682968     0.01100
C1432       C  0.15487836  0.37958600  0.84754952    -0.31700
C1433       C  0.15638967  0.45879641  0.84791314     0.02500
C1434       C  0.15579904  0.47262978  0.84881103    -0.33400
H1435       H  0.18063095  0.44012892  0.84262568     0.13600
H1436       H  0.18032474  0.41174765  0.84210161     0.13400
H1437       H  0.13161089  0.41212320  0.85136812     0.13300
H1438       H  0.13191630  0.44043661  0.85189341     0.12300
C1439       C  0.22307582  0.62829107  0.78054487     0.18600
C1440       C  0.22372294  0.62930273  0.79661458    -0.10500
C1441       C  0.21500488  0.61928216  0.80568923    -0.11300
C1442       C  0.20559970  0.60819624  0.79873625     0.20200
C1443       C  0.20507746  0.60707337  0.78266119    -0.13400
C1444       C  0.21378924  0.61711319  0.77357841    -0.11700
C1445       C  0.19637535  0.59810589  0.80808875     0.01100
C1446       C  0.18863228  0.58967069  0.81592169    -0.31700
C1447       C  0.23138798  0.63920820  0.77129590     0.02500
C1448       C  0.23786319  0.64919169  0.76417678    -0.33400
H1449       H  0.23081633  0.63795282  0.80211389     0.13600
H1450       H  0.21549744  0.62025899  0.81810097     0.13400
H1451       H  0.19784452  0.59854316  0.77716322     0.13300
H1452       H  0.21315005  0.61628193  0.76116214     0.12300
C1453       C  0.70347374  0.70434471  0.77988439     0.18600
C1454       C  0.70063413  0.69952844  0.79499813    -0.10500
C1455       C  0.69019225  0.70759257  0.80418804    -0.11300
C1456       C  0.68254402  0.72049256  0.79829410     0.20200
C1457       C  0.68524236  0.72519680  0.78311751    -0.13400
C1458       C  0.69570899  0.71714747  0.77393435    -0.11700
C1459       C  0.67221176  0.72908747  0.80792975     0.01100
C1460       C  0.66375438  0.73638449  0.81612708    -0.31700
C1461       C  0.71484740  0.69654650  0.77076998     0.02500
C1462       C  0.72501685  0.69021889  0.76380385    -0.33400
H1463       H  0.70663237  0.68967673  0.79972614     0.13600
H1464       H  0.68820503  0.70387566  0.81591599     0.13400
H1465       H  0.67940417  0.73517189  0.77845835     0.13300
H1466       H  0.69789805  0.72102216  0.76230137     0.12300
C1467       C  0.29764798  0.70574791  0.78016107     0.18600
C1468       C  0.29814872  0.70349840  0.79611337    -0.10500
C1469       C  0.30845868  0.71193762  0.80513133    -0.11300
C1470       C  0.31832431  0.72266585  0.79824320     0.20200
C1471       C  0.31791950  0.72481795  0.78227056    -0.13400
C1472       C  0.30759981  0.71637777  0.77324818    -0.11700
C1473       C  0.32875136  0.73152787  0.80758256     0.01100
C1474       C  0.33741894  0.73891748  0.81550426    -0.31700
C1475       C  0.28659293  0.69748022  0.77102066     0.02500
C1476       C  0.27674355  0.69071779  0.76397275    -0.33400
H1477       H  0.29049017  0.69532048  0.80158144     0.13600
H1478       H  0.30867438  0.71016859  0.81746395     0.13400
H1479       H  0.32550221  0.73307085  0.77681727     0.13300
H1480       H  0.30730333  0.71821427  0.76093057     0.12300
C1481       C  0.51727033  0.76545574  0.85134776     0.18600
C1482       C  0.50928229  0.76917957  0.83785229    -0.10500
C1483       C  0.49318544  0.76936497  0.83779258    -0.11300
C1484       C  0.48500942  0.76582317  0.85122767     0.20200
C1485       C  0.49300415  0.76189771  0.86466037    -0.13400
C1486       C  0.50909151  0.76171237  0.86471971    -0.11700
C1487       C  0.46846288  0.76668304  0.85140401     0.01100
C1488       C  0.45464420  0.76780415  0.85197847    -0.31700
C1489       C  0.53381630  0.76609157  0.85167586     0.02500
C1490       C  0.54762655  0.76722120  0.85228891    -0.33400
H1491       H  0.51548772  0.77214146  0.82745909     0.13600
H1492       H  0.48713041  0.77245277  0.82734970     0.13400
H1493       H  0.48680931  0.75917572  0.87512542     0.13300
H1494       H  0.51514513  0.75886489  0.87523262     0.12300
C1495       C  0.78188891  0.70349544  0.70191657     0.18600
C1496       C  0.79782301  0.70100846  0.70190453    -0.10500
C1497       C  0.80726594  0.70909063  0.69166225    -0.11300
C1498       C  0.80081861  0.71970576  0.68137882     0.20200
C1499       C  0.78485991  0.72200899  0.68124477    -0.13400
C1500       C  0.77542142  0.71393260  0.69148601    -0.11700
C1501       C  0.81053748  0.72851655  0.67121606     0.01100
C1502       C  0.81834294  0.73626291  0.66272795    -0.31700
C1503       C  0.77233281  0.69584954  0.71308994     0.02500
C1504       C  0.76505842  0.68971612  0.72319450    -0.33400
H1505       H  0.80295771  0.69299327  0.70995105     0.13600
H1506       H  0.81958073  0.70720424  0.69188775     0.13400
H1507       H  0.77973863  0.73018071  0.67335344     0.13300
H1508       H  0.76313146  0.71597288  0.69140697     0.12300
C1509       C  0.78127882  0.70227673  0.29582882     0.18600
C1510       C  0.77688940  0.71716977  0.30014166    -0.10500
C1511       C  0.78595436  0.72561933  0.31040520    -0.11300
C1512       C  0.79948606  0.71923822  0.31640132     0.20200
C1513       C  0.80382264  0.70428727  0.31218433    -0.13400
C1514       C  0.79474620  0.69583027  0.30191188    -0.11700
C1515       C  0.80897175  0.72812941  0.32670039     0.01100
C1516       C  0.81676000  0.73580397  0.33525971    -0.31700
C1517       C  0.77234585  0.69392801  0.28464573     0.02500
C1518       C  0.76535717  0.68739962  0.27458913    -0.33400
H1519       H  0.76656951  0.72230880  0.29543516     0.13600
H1520       H  0.78248585  0.73716575  0.31355869     0.13400
H1521       H  0.81426493  0.69923058  0.31672662     0.13300
H1522       H  0.79831180  0.68436135  0.29858284     0.12300
C1523       C  0.84641394  0.76919865  0.51539640     0.18600
C1524       C  0.84459019  0.78270058  0.50678937    -0.10500
C1525       C  0.84452165  0.78208641  0.49071735    -0.11300
C1526       C  0.84627303  0.76796803  0.48314524     0.20200
C1527       C  0.84786060  0.75441837  0.49174401    -0.13400
C1528       C  0.84792732  0.75503325  0.50783894    -0.11700
C1529       C  0.84706359  0.76756354  0.46659531     0.01100
C1530       C  0.84830642  0.76793870  0.45277834    -0.31700
C1531       C  0.84730899  0.77000937  0.53192573     0.02500
C1532       C  0.84856491  0.77104990  0.54570695    -0.33400
H1533       H  0.84344766  0.79371995  0.51249622     0.13600
H1534       H  0.84333272  0.79264141  0.48419666     0.13400
H1535       H  0.84926804  0.74343972  0.48602037     0.13300
H1536       H  0.84937943  0.74452005  0.51437159     0.12300
C1537       C  0.78079152  0.62837751  0.77836220     0.18600
C1538       C  0.79652034  0.62677060  0.77525263    -0.10500
C1539       C  0.80538039  0.61635839  0.78371846    -0.11300
C1540       C  0.79854513  0.60751934  0.79533373     0.20200
C1541       C  0.78277391  0.60900299  0.79832280    -0.13400
C1542       C  0.77391040  0.61942203  0.78985562    -0.11700
C1543       C  0.80776613  0.59719033  0.80439896     0.01100
C1544       C  0.81550126  0.58870918  0.81217412    -0.31700
C1545       C  0.77192626  0.63970734  0.77022431     0.02500
C1546       C  0.76510093  0.64987809  0.76375101    -0.33400
H1547       H  0.80196078  0.63370536  0.76643767     0.13600
H1548       H  0.81756631  0.61532135  0.78132787     0.13400
H1549       H  0.77737929  0.60223805  0.80729287     0.13300
H1550       H  0.76176889  0.62063179  0.79238952     0.12300
C1551       C  0.77666507  0.22445858  0.77738152     0.18600
C1552       C  0.78817689  0.23313653  0.77016668    -0.10500
C1553       C  0.79697179  0.24355301  0.77872723    -0.11300
C1554       C  0.79429186  0.24531217  0.79452841     0.20200
C1555       C  0.78258021  0.23684342  0.80166188    -0.13400
C1556       C  0.77379554  0.22643611  0.79311095    -0.11700
C1557       C  0.80380635  0.25545607  0.80352165     0.01100
C1558       C  0.81182571  0.26374722  0.81122668    -0.31700
C1559       C  0.76848448  0.21280819  0.76895612     0.02500
C1560       C  0.76222160  0.20220836  0.76258373    -0.33400
H1561       H  0.79054158  0.23163546  0.75802406     0.13600
H1562       H  0.80600115  0.25003834  0.77309297     0.13400
H1563       H  0.78041245  0.23810045  0.81386778     0.13300
H1564       H  0.76499192  0.21970765  0.79882059     0.12300
C1565       C  0.84523824  0.44225629  0.84856848     0.18600
C1566       C  0.83354195  0.43430577  0.85631355    -0.10500
C1567       C  0.83307521  0.41821588  0.85591278    -0.11300
C1568       C  0.84430062  0.41000772  0.84776256     0.20200
C1569       C  0.85595417  0.41796252  0.83996978    -0.13400
C1570       C  0.85642124  0.43404191  0.84037069    -0.11700
C1571       C  0.84417119  0.39344197  0.84777081     0.01100
C1572       C  0.84464092  0.37958253  0.84816437    -0.31700
C1573       C  0.84593258  0.45880341  0.84920658     0.02500
C1574       C  0.84687887  0.47263580  0.84983681    -0.33400
H1575       H  0.82485820  0.44053060  0.86272399     0.13600
H1576       H  0.82405199  0.41218451  0.86203973     0.13400
H1577       H  0.86473437  0.41173644  0.83369130     0.13300
H1578       H  0.86554224  0.44005877  0.83437498     0.12300
C1579       C  0.22116712  0.70274319  0.70139487     0.18600
C1580       C  0.22647184  0.71673683  0.69541165    -0.10500
C1581       C  0.21733457  0.72512056  0.68515836    -0.11300
C1582       C  0.20282447  0.71958050  0.68084188     0.20200
C1583       C  0.19759991  0.70546820  0.68665591    -0.13400
C1584       C  0.20674801  0.69707209  0.69691721    -0.11700
C1585       C  0.19322430  0.72857657  0.67073991     0.01100
C1586       C  0.18537988  0.73644254  0.66240797    -0.31700
C1587       C  0.23014510  0.69466990  0.71274185     0.02500
C1588       C  0.23716399  0.68846309  0.72297962    -0.33400
H1589       H  0.23755379  0.72127933  0.69885876     0.13600
H1590       H  0.22149664  0.73601266  0.68075432     0.13400
H1591       H  0.18640208  0.70106392  0.68341634     0.13300
H1592       H  0.20248885  0.68630471  0.70153658     0.12300
C1593       C  0.22243815  0.70621041  0.29776299     0.18600
C1594       C  0.21409015  0.69935360  0.30971479    -0.10500
C1595       C  0.20630426  0.70852737  0.32039742    -0.11300
C1596       C  0.20682229  0.72459571  0.31916927     0.20200
C1597       C  0.21542155  0.73145766  0.30738649    -0.13400
C1598       C  0.22321691  0.72228378  0.29671068    -0.11700
C1599       C  0.19799944  0.73398145  0.32958287     0.01100
C1600       C  0.19009376  0.74167732  0.33799228    -0.31700
C1601       C  0.22967452  0.69683060  0.28620409     0.02500
C1602       C  0.23551517  0.68966300  0.27586811    -0.33400
H1603       H  0.21339653  0.68694462  0.31062567     0.13600
H1604       H  0.19967451  0.70309778  0.32944634     0.13400
H1605       H  0.21588786  0.74386538  0.30630534     0.13300
H1606       H  0.22963246  0.72770703  0.28750081     0.12300
C1607       C  0.15326320  0.77122343  0.51574568     0.18600
C1608       C  0.13971330  0.77497211  0.50787121    -0.10500
C1609       C  0.13967186  0.77586223  0.49181495    -0.11300
C1610       C  0.15318620  0.77301096  0.48351936     0.20200
C1611       C  0.16670968  0.76906201  0.49136635    -0.13400
C1612       C  0.16675237  0.76817410  0.50745233    -0.11700
C1613       C  0.15318116  0.77442791  0.46700719     0.01100
C1614       C  0.15287411  0.77584144  0.45320590    -0.31700
C1615       C  0.15330445  0.77101587  0.53231964     0.02500
C1616       C  0.15259749  0.77153192  0.54617096    -0.33400
H1617       H  0.12922289  0.77737281  0.51415557     0.13600
H1618       H  0.12914804  0.77891750  0.48588290     0.13400
H1619       H  0.17722761  0.76682314  0.48507102     0.13300
H1620       H  0.17730564  0.76528213  0.51341049     0.12300
C1621       C  0.77972136  0.14487673  0.70307031     0.18600
C1622       C  0.79094676  0.15229987  0.69420075    -0.10500
C1623       C  0.79997753  0.14384566  0.68391064    -0.11300
C1624       C  0.79784366  0.12792916  0.68247560     0.20200
C1625       C  0.78649612  0.12054008  0.69122407    -0.13400
C1626       C  0.77745353  0.12899490  0.70149916    -0.11700
C1627       C  0.80744289  0.11914454  0.67223040     0.01100
C1628       C  0.81548886  0.11170774  0.66372534    -0.31700
C1629       C  0.77096656  0.15341725  0.71421374     0.02500
C1630       C  0.76407188  0.16025665  0.72410852    -0.33400
H1631       H  0.79283302  0.16456487  0.69537225     0.13600
H1632       H  0.80871155  0.14967990  0.67720139     0.13400
H1633       H  0.78474248  0.10824286  0.69020626     0.13300
H1634       H  0.76883087  0.12313622  0.70833560     0.12300
C1635       C  0.77895461  0.14419429  0.29626230     0.18600
C1636       C  0.77266789  0.13132572  0.30364516    -0.10500
C1637       C  0.78148610  0.12299216  0.31420346    -0.11300
C1638       C  0.79662199  0.12750671  0.31741624     0.20200
C1639       C  0.80287531  0.14043313  0.31009725    -0.13400
C1640       C  0.79406646  0.14874504  0.29951914    -0.11700
C1641       C  0.80581323  0.11874039  0.32801504     0.01100
C1642       C  0.81355808  0.11127895  0.33675728    -0.31700
C1643       C  0.77009376  0.15246725  0.28502303     0.02500
C1644       C  0.76317270  0.15922737  0.27510503    -0.33400
H1645       H  0.76101789  0.12768720  0.30116547     0.13600
H1646       H  0.77654963  0.11299610  0.31977893     0.13400
H1647       H  0.81457628  0.14400252  0.31247479     0.13300
H1648       H  0.79907098  0.15861576  0.29378845     0.12300
C1649       C  0.84197048  0.07846880  0.51656853     0.18600
C1650       C  0.83126695  0.06951755  0.50851753    -0.10500
C1651       C  0.83102358  0.06981497  0.49244892    -0.11300
C1652       C  0.84147979  0.07906770  0.48440672     0.20200
C1653       C  0.85205233  0.08816478  0.49246686    -0.13400
C1654       C  0.85229550  0.08786750  0.50852954    -0.11700
C1655       C  0.84185235  0.07869852  0.46790567     0.01100
C1656       C  0.84283272  0.07789956  0.45412449    -0.31700
C1657       C  0.84275702  0.07759519  0.53303396     0.02500
C1658       C  0.84394785  0.07657874  0.54678272    -0.33400
H1659       H  0.82327723  0.06216969  0.51464391     0.13600
H1660       H  0.82285872  0.06268154  0.48630461     0.13400
H1661       H  0.86023547  0.09529572  0.48633845     0.13300
H1662       H  0.86065317  0.09478399  0.51466406     0.12300
C1663       C  0.77957976  0.62576391  0.21856848     0.18600
C1664       C  0.77539216  0.62271821  0.20331720    -0.10500
C1665       C  0.78360143  0.61189031  0.19472805    -0.11300
C1666       C  0.79603808  0.60407733  0.20135012     0.20200
C1667       C  0.80012349  0.60699288  0.21666301    -0.13400
C1668       C  0.79189556  0.61781559  0.22526027    -0.11700
C1669       C  0.80483777  0.59342278  0.19226908     0.01100
C1670       C  0.81231408  0.58487411  0.18433385    -0.31700
C1671       C  0.77157597  0.63742721  0.22712173     0.02500
C1672       C  0.76513914  0.64770393  0.23382513    -0.33400
H1673       H  0.76590643  0.62883093  0.19802751     0.13600
H1674       H  0.78036845  0.60973893  0.18288755     0.13400
H1675       H  0.80973719  0.60103140  0.22188667     0.13300
H1676       H  0.79521341  0.62008788  0.23704047     0.12300
C1677       C  0.79647304  0.24365630  0.20535475     0.18600
C1678       C  0.78039252  0.24387970  0.20435020    -0.10500
C1679       C  0.77165933  0.23335262  0.21280811    -0.11300
C1680       C  0.77898128  0.22253398  0.22223035     0.20200
C1681       C  0.79504429  0.22250450  0.22345891    -0.13400
C1682       C  0.80377649  0.23306413  0.21505002    -0.11700
C1683       C  0.77013074  0.21098720  0.23006139     0.01100
C1684       C  0.76326689  0.20063236  0.23618815    -0.31700
C1685       C  0.80550098  0.25390564  0.19604555     0.02500
C1686       C  0.81312535  0.26216579  0.18795083    -0.33400
H1687       H  0.77463578  0.25203403  0.19688924     0.13600
H1688       H  0.75925127  0.23352332  0.21185638     0.13400
H1689       H  0.80081333  0.21416629  0.23070695     0.13300
H1690       H  0.81620613  0.23280250  0.21590484     0.12300
C1691       C  0.85105596  0.43969131  0.15556960     0.18600
C1692       C  0.83935849  0.43148359  0.14813367    -0.10500
C1693       C  0.83921305  0.41542068  0.14867360    -0.11300
C1694       C  0.85075858  0.40751752  0.15665357     0.20200
C1695       C  0.86238368  0.41572329  0.16421149    -0.13400
C1696       C  0.86252822  0.43179605  0.16367295    -0.11700
C1697       C  0.85095511  0.39100018  0.15657279     0.01100
C1698       C  0.85122763  0.37718248  0.15575390    -0.31700
C1699       C  0.85149629  0.45617746  0.15454841     0.02500
C1700       C  0.85201973  0.46996435  0.15335018    -0.33400
H1701       H  0.83046054  0.43748734  0.14180380     0.13600
H1702       H  0.83021499  0.40916612  0.14273777     0.13400
H1703       H  0.87140038  0.40970534  0.17035655     0.13300
H1704       H  0.87164478  0.43804889  0.16942564     0.12300
C1705       C  0.70276391  0.70354131  0.22084223     0.18600
C1706       C  0.69788640  0.69909573  0.20615215    -0.10500
C1707       C  0.68757114  0.70830136  0.19794743    -0.11300
C1708       C  0.68210212  0.72202519  0.20437701     0.20200
C1709       C  0.68677460  0.72635840  0.21918787    -0.13400
C1710       C  0.69709767  0.71713338  0.22740780    -0.11700
C1711       C  0.67201973  0.73178687  0.19558526     0.01100
C1712       C  0.66370541  0.73979781  0.18789908    -0.31700
C1713       C  0.71423286  0.69461496  0.22874968     0.02500
C1714       C  0.72456761  0.68769076  0.23487015    -0.33400
H1715       H  0.70226624  0.68866833  0.20093944     0.13600
H1716       H  0.68404105  0.70483793  0.18651024     0.13400
H1717       H  0.68261828  0.73694642  0.22427432     0.13300
H1718       H  0.70085579  0.72071736  0.23873892     0.12300
C1719       C  0.29648119  0.70503691  0.21969580     0.18600
C1720       C  0.30122497  0.71956163  0.22479710    -0.10500
C1721       C  0.31170968  0.72811501  0.21611718    -0.11300
C1722       C  0.31746240  0.72219226  0.20228509     0.20200
C1723       C  0.31282468  0.70760162  0.19724191    -0.13400
C1724       C  0.30233114  0.69904195  0.20592976    -0.11700
C1725       C  0.32788823  0.73123660  0.19317547     0.01100
C1726       C  0.33652689  0.73907402  0.18569439    -0.31700
C1727       C  0.28512581  0.69660724  0.22824664     0.02500
C1728       C  0.27500808  0.68998322  0.23500534    -0.33400
H1729       H  0.29667442  0.72434507  0.23536122     0.13600
H1730       H  0.31520605  0.73939490  0.22010187     0.13400
H1731       H  0.31718938  0.70292821  0.18654784     0.13300
H1732       H  0.29863911  0.68786887  0.20183055     0.12300
C1733       C  0.51682332  0.77336918  0.15860153     0.18600
C1734       C  0.50894482  0.75942884  0.16050839    -0.10500
C1735       C  0.49284765  0.75923020  0.16076523    -0.11300
C1736       C  0.48458522  0.77297372  0.15912368     0.20200
C1737       C  0.49247655  0.78691292  0.15734726    -0.13400
C1738       C  0.50855028  0.78711121  0.15708976    -0.11700
C1739       C  0.46803838  0.77281052  0.15873370     0.01100
C1740       C  0.45422052  0.77326769  0.15769623    -0.31700
C1741       C  0.53335316  0.77358633  0.15771701     0.02500
C1742       C  0.54714869  0.77412565  0.15641921    -0.33400
H1743       H  0.51522908  0.74872729  0.16163340     0.13600
H1744       H  0.48685999  0.74837851  0.16207987     0.13400
H1745       H  0.48620332  0.79759721  0.15600095     0.13300
H1746       H  0.51451932  0.79794561  0.15555332     0.12300
C1747       C  0.68140665  0.12673327  0.79524195     0.18600
C1748       C  0.69103443  0.11979995  0.78433608    -0.10500
C1749       C  0.70125500  0.12878680  0.77575387    -0.11300
C1750       C  0.70185090  0.14473474  0.77802420     0.20200
C1751       C  0.69207560  0.15168031  0.78877047    -0.13400
C1752       C  0.68188136  0.14269935  0.79737156    -0.11700
C1753       C  0.71296885  0.15383261  0.76983802     0.01100
C1754       C  0.72299390  0.16089720  0.76338553    -0.31700
C1755       C  0.67124066  0.11748449  0.80445362     0.02500
C1756       C  0.66274325  0.10993815  0.81239085    -0.33400
H1757       H  0.69076070  0.10746199  0.78259912     0.13600
H1758       H  0.70882242  0.12329331  0.76751676     0.13400
H1759       H  0.69245253  0.16398463  0.79061548     0.13300
H1760       H  0.67448428  0.14817520  0.80577216     0.12300
C1761       C  0.31777152  0.13057443  0.79843162     0.18600
C1762       C  0.31381301  0.12515663  0.78378182    -0.10500
C1763       C  0.30401678  0.13376924  0.77438911    -0.11300
C1764       C  0.29817073  0.14783593  0.77961356     0.20200
C1765       C  0.30226217  0.15335132  0.79418846    -0.13400
C1766       C  0.31207014  0.14474083  0.80357927    -0.11700
C1767       C  0.28720385  0.15610363  0.77046185     0.01100
C1768       C  0.27706729  0.16249659  0.76354277    -0.31700
C1769       C  0.32752141  0.12149118  0.80821863     0.02500
C1770       C  0.33575877  0.11373941  0.81621898    -0.33400
H1771       H  0.31815898  0.11421383  0.77970136     0.13600
H1772       H  0.30081056  0.12935893  0.76318204     0.13400
H1773       H  0.29767549  0.16415419  0.79837823     0.13300
H1774       H  0.31505820  0.14902771  0.81489091     0.12300
C1775       C  0.51536553  0.08028906  0.84444471     0.18600
C1776       C  0.50744631  0.09432925  0.84398357    -0.10500
C1777       C  0.49133766  0.09450816  0.84407024    -0.11300
C1778       C  0.48310544  0.08064904  0.84461613     0.20200
C1779       C  0.49104003  0.06662972  0.84487437    -0.13400
C1780       C  0.50711517  0.06645111  0.84478762    -0.11700
C1781       C  0.46656191  0.08071648  0.84544919     0.01100
C1782       C  0.45275859  0.08013193  0.84670359    -0.31700
C1783       C  0.53191777  0.07996624  0.84503404     0.02500
C1784       C  0.54572271  0.07895982  0.84596958    -0.33400
H1785       H  0.51370598  0.10510353  0.84374123     0.13600
H1786       H  0.48532174  0.10541943  0.84390186     0.13400
H1787       H  0.48480214  0.05584777  0.84533462     0.13300
H1788       H  0.51311087  0.05553228  0.84517382     0.12300
C1789       C  0.70036545  0.14722087  0.21985771     0.18600
C1790       C  0.69759293  0.15186468  0.20468166    -0.10500
C1791       C  0.68747256  0.14349617  0.19541050    -0.11300
C1792       C  0.68014244  0.13039015  0.20124854     0.20200
C1793       C  0.68269373  0.12589338  0.21651993    -0.13400
C1794       C  0.69279701  0.13429377  0.22581264    -0.11700
C1795       C  0.67038755  0.12132275  0.19142929     0.01100
C1796       C  0.66229467  0.11364741  0.18319884    -0.31700
C1797       C  0.71174225  0.15511649  0.22889598     0.02500
C1798       C  0.72213531  0.16127106  0.23569325    -0.33400
H1799       H  0.70352421  0.16172533  0.19990866     0.13600
H1800       H  0.68559344  0.14706756  0.18362042     0.13400
H1801       H  0.67708632  0.11576920  0.22114614     0.13300
H1802       H  0.69494862  0.13053525  0.23749822     0.12300
C1803       C  0.31637138  0.12928432  0.20138228     0.18600
C1804       C  0.30514163  0.13858261  0.19452436    -0.10500
C1805       C  0.29500052  0.14706171  0.20368275    -0.11300
C1806       C  0.29601983  0.14628129  0.21974587     0.20200
C1807       C  0.30728663  0.13703587  0.22662561    -0.13400
C1808       C  0.31745305  0.12856301  0.21745580    -0.11700
C1809       C  0.28513564  0.15459032  0.22904180     0.01100
C1810       C  0.27519752  0.16128030  0.23602564    -0.31700
C1811       C  0.32672026  0.12045358  0.19193098     0.02500
C1812       C  0.33540845  0.11304638  0.18405135    -0.33400
H1813       H  0.30418848  0.13922692  0.18211775     0.13600
H1814       H  0.28629713  0.15413813  0.19824824     0.13400
H1815       H  0.30814177  0.13630320  0.23903417     0.13300
H1816       H  0.32609113  0.12140739  0.22288316     0.12300
C1817       C  0.48331424  0.08047938  0.15673149     0.18600
C1818       C  0.49173351  0.09397608  0.15932864    -0.10500
C1819       C  0.50779509  0.09340913  0.16008757    -0.11300
C1820       C  0.51544474  0.07934285  0.15825688     0.20200
C1821       C  0.50700284  0.06583663  0.15586635    -0.13400
C1822       C  0.49097090  0.06640279  0.15510599    -0.11700
C1823       C  0.53194890  0.07877073  0.15808285     0.01100
C1824       C  0.54571478  0.07776096  0.15703951    -0.31700
C1825       C  0.46686473  0.08102868  0.15529811     0.02500
C1826       C  0.45311916  0.08080269  0.15364270    -0.33400
H1827       H  0.48590846  0.10492145  0.16057012     0.13600
H1828       H  0.51423822  0.10392725  0.16187411     0.13400
H1829       H  0.51282304  0.05491835  0.15436801     0.13300
H1830       H  0.48456064  0.05590969  0.15306154     0.12300
C1831       C  0.21918674  0.62828933  0.22029760     0.18600
C1832       C  0.22650735  0.61878583  0.20954561    -0.10500
C1833       C  0.21790635  0.60834039  0.20084354    -0.11300
C1834       C  0.20195025  0.60733416  0.20288172     0.20200
C1835       C  0.19465646  0.61669199  0.21379017    -0.13400
C1836       C  0.20325543  0.62716239  0.22246652    -0.11700
C1837       C  0.19304830  0.59688005  0.19363106     0.01100
C1838       C  0.18555244  0.58820001  0.18583526    -0.31700
C1839       C  0.22788144  0.63963590  0.22862848     0.02500
C1840       C  0.23472908  0.64976086  0.23517179    -0.33400
H1841       H  0.23881327  0.61955604  0.20779038     0.13600
H1842       H  0.22366646  0.60115296  0.19245216     0.13400
H1843       H  0.18232706  0.61600594  0.21546826     0.13300
H1844       H  0.19747089  0.63450042  0.23071092     0.12300
C1845       C  0.21893568  0.22278572  0.22081855     0.18600
C1846       C  0.20671039  0.23030528  0.22816267    -0.10500
C1847       C  0.19727699  0.24037111  0.21985805    -0.11300
C1848       C  0.20002096  0.24292911  0.20417554     0.20200
C1849       C  0.21236406  0.23555235  0.19690178    -0.13400
C1850       C  0.22178487  0.22549520  0.20519453    -0.11700
C1851       C  0.19009884  0.25292401  0.19544997     0.01100
C1852       C  0.18202330  0.26124418  0.18783082    -0.31700
C1853       C  0.22805743  0.21170697  0.22906849     0.02500
C1854       C  0.23506189  0.20169650  0.23563218    -0.33400
H1855       H  0.20435466  0.22822674  0.24022537     0.13600
H1856       H  0.18777281  0.24601715  0.22560713     0.13400
H1857       H  0.21459809  0.23744543  0.18478954     0.13300
H1858       H  0.23114012  0.21966977  0.19938006     0.12300
C1859       C  0.15269268  0.44051364  0.15715126     0.18600
C1860       C  0.16163218  0.43295316  0.14608537    -0.10500
C1861       C  0.16167512  0.41689171  0.14537032    -0.11300
C1862       C  0.15277827  0.40833049  0.15572109     0.20200
C1863       C  0.14395558  0.41588151  0.16689409    -0.13400
C1864       C  0.14391094  0.43195326  0.16760815    -0.11700
C1865       C  0.15235431  0.39184041  0.15457271     0.01100
C1866       C  0.15163795  0.37806375  0.15328241    -0.31700
C1867       C  0.15203195  0.45703393  0.15729379     0.02500
C1868       C  0.15107802  0.47083977  0.15663302    -0.33400
H1869       H  0.16839848  0.43947327  0.13789627     0.13600
H1870       H  0.16849200  0.41116331  0.13665331     0.13400
H1871       H  0.13699299  0.40936156  0.17491641     0.13300
H1872       H  0.13689620  0.43769479  0.17615740     0.12300
C1873       C  0.27858857  0.20383404  0.20190218     0.18600
C1874       C  0.29326887  0.19869706  0.19768564    -0.10500
C1875       C  0.30201338  0.20711698  0.18712879    -0.11300
C1876       C  0.29609821  0.22069207  0.18076329     0.20200
C1877       C  0.28134794  0.22572244  0.18485501    -0.13400
C1878       C  0.27261439  0.21731740  0.19542027    -0.11700
C1879       C  0.30527725  0.22967220  0.17033927     0.01100
C1880       C  0.31294601  0.23745914  0.16181851    -0.31700
C1881       C  0.26995412  0.19566919  0.21338322     0.02500
C1882       C  0.26316860  0.18926636  0.22362178    -0.33400
H1883       H  0.29801187  0.18831456  0.20269712     0.13600
H1884       H  0.31342000  0.20314633  0.18406260     0.13400
H1885       H  0.27668399  0.23622001  0.18002156     0.13300
H1886       H  0.26131349  0.22142902  0.19868409     0.12300
C1887       C  0.29694384  0.22067197  0.81970531     0.18600
C1888       C  0.28094578  0.22255814  0.81910805    -0.10500
C1889       C  0.27221620  0.21409159  0.80857330    -0.11300
C1890       C  0.27944971  0.20369822  0.79861320     0.20200
C1891       C  0.29540264  0.20157100  0.79943982    -0.13400
C1892       C  0.30412988  0.21003008  0.80997227    -0.11700
C1893       C  0.27068789  0.19580975  0.78701121     0.01100
C1894       C  0.26395990  0.18957318  0.77661982    -0.31700
C1895       C  0.30604982  0.23011975  0.82979779     0.02500
C1896       C  0.31371035  0.23836532  0.83789860    -0.33400
H1897       H  0.27527163  0.23076712  0.82656995     0.13600
H1898       H  0.25990268  0.21585862  0.80799774     0.13400
H1899       H  0.30111975  0.19360990  0.79174399     0.13300
H1900       H  0.31649107  0.20849265  0.81032201     0.12300
C1901       C  0.34350907  0.27365229  0.01530621     0.18600
C1902       C  0.33272668  0.28274496  0.00750690    -0.10500
C1903       C  0.33288781  0.28341983  0.99143221    -0.11300
C1904       C  0.34383789  0.27501118  0.98311906     0.20200
C1905       C  0.35453195  0.26583125  0.99092168    -0.13400
C1906       C  0.35437056  0.26515654  0.00697992    -0.11700
C1907       C  0.34436884  0.27603621  0.96662229     0.01100
C1908       C  0.34529600  0.27692932  0.95282668    -0.31700
C1909       C  0.34382548  0.27344188  0.03183856     0.02500
C1910       C  0.34475556  0.27362570  0.04566107    -0.33400
H1911       H  0.32432246  0.28941366  0.01384394     0.13600
H1912       H  0.32459151  0.29058436  0.98550640     0.13400
H1913       H  0.36307047  0.25931666  0.98460245     0.13300
H1914       H  0.36280097  0.25814649  0.01290279     0.12300
C1915       C  0.18140772  0.22370255  0.29626202     0.18600
C1916       C  0.17940605  0.20774645  0.29508208    -0.10500
C1917       C  0.18972392  0.19893651  0.28643003    -0.11300
C1918       C  0.20207132  0.20605572  0.27891211     0.20200
C1919       C  0.20401845  0.22201944  0.28001186    -0.13400
C1920       C  0.19371440  0.23082367  0.28867172    -0.11700
C1921       C  0.21305589  0.19699990  0.27048941     0.01100
C1922       C  0.22296998  0.18994312  0.26385282    -0.31700
C1923       C  0.17095045  0.23272911  0.30539056     0.02500
C1924       C  0.16225499  0.24022613  0.31316986    -0.33400
H1925       H  0.16994009  0.20211920  0.30091826     0.13600
H1926       H  0.18814429  0.18659742  0.28569572     0.13400
H1927       H  0.21356133  0.22762992  0.27428024     0.13300
H1928       H  0.19538790  0.24314503  0.28951978     0.12300
C1929       C  0.79673495  0.20280332  0.27906368     0.18600
C1930       C  0.80281083  0.21645980  0.27303115    -0.10500
C1931       C  0.81302102  0.22528543  0.28178739    -0.11300
C1932       C  0.81717252  0.22048997  0.29660603     0.20200
C1933       C  0.81117744  0.20677280  0.30258055    -0.13400
C1934       C  0.80096054  0.19795877  0.29383473    -0.11700
C1935       C  0.82737554  0.22974515  0.30577619     0.01100
C1936       C  0.83581900  0.23752606  0.31354548    -0.31700
C1937       C  0.78558513  0.19417875  0.27043671     0.02500
C1938       C  0.77549057  0.18752243  0.26367771    -0.33400
H1939       H  0.79951261  0.22036726  0.26166388     0.13600
H1940       H  0.81756184  0.23589145  0.27707208     0.13400
H1941       H  0.81428105  0.20297899  0.31403759     0.13300
H1942       H  0.79620572  0.18749789  0.29865842     0.12300
C1943       C  0.01479283  0.27280518  0.34443699     0.18600
C1944       C  0.00660434  0.26788149  0.35740994    -0.10500
C1945       C  0.99052910  0.26794267  0.35730169    -0.11300
C1946       C  0.98255467  0.27292568  0.34422053     0.20200
C1947       C  0.99073247  0.27780336  0.33121128    -0.13400
C1948       C  0.00683082  0.27774210  0.33131977    -0.11700
C1949       C  0.96600785  0.27327615  0.34433801     0.01100
C1950       C  0.95217258  0.27373273  0.34510826    -0.31700
C1951       C  0.03133567  0.27310977  0.34478628     0.02500
C1952       C  0.04515955  0.27364552  0.34567864    -0.33400
H1953       H  0.01264334  0.26409602  0.36763177     0.13600
H1954       H  0.98432191  0.26419615  0.36743907     0.13400
H1955       H  0.98467944  0.28172677  0.32105164     0.13300
H1956       H  0.01305318  0.28162628  0.32124520     0.12300
C1957       C  0.27813689  0.12805427  0.27953464     0.18600
C1958       C  0.27545289  0.12628184  0.29532172    -0.10500
C1959       C  0.28431657  0.11596635  0.30389743    -0.11300
C1960       C  0.29593572  0.10740587  0.29673755     0.20200
C1961       C  0.29852879  0.10906182  0.28091174    -0.13400
C1962       C  0.28964508  0.11937588  0.27232425    -0.11700
C1963       C  0.30531595  0.09713451  0.30570807     0.01100
C1964       C  0.31309173  0.08864038  0.31342888    -0.31700
C1965       C  0.26956692  0.13928871  0.27093463     0.02500
C1966       C  0.26288693  0.14938088  0.26417515    -0.33400
H1967       H  0.26666458  0.13302072  0.30103096     0.13600
H1968       H  0.28222379  0.11478585  0.31612460     0.13400
H1969       H  0.30749080  0.10250489  0.27525908     0.13300
H1970       H  0.29186290  0.12071957  0.26013564     0.12300
C1971       C  0.27811700  0.72276974  0.27966504     0.18600
C1972       C  0.27168904  0.72848814  0.29329836    -0.10500
C1973       C  0.28005230  0.73874523  0.30245781    -0.11300
C1974       C  0.29486949  0.74328851  0.29801477     0.20200
C1975       C  0.30123535  0.73763661  0.28433774    -0.13400
C1976       C  0.29288800  0.72738397  0.27519629    -0.11700
C1977       C  0.30367498  0.75356802  0.30752787     0.01100
C1978       C  0.31142761  0.76210018  0.31522183    -0.31700
C1979       C  0.26985673  0.71169172  0.27058592     0.02500
C1980       C  0.26330563  0.70175950  0.26348006    -0.33400
H1981       H  0.26030985  0.72490384  0.29690885     0.13600
H1982       H  0.27503222  0.74302886  0.31302696     0.13400
H1983       H  0.31269095  0.74105478  0.28081304     0.13300
H1984       H  0.29800812  0.72293082  0.26474907     0.12300
C1985       C  0.34507794  0.94137955  0.34250283     0.18600
C1986       C  0.35433864  0.93374983  0.33175884    -0.10500
C1987       C  0.35467069  0.91768647  0.33141282    -0.11300
C1988       C  0.34573934  0.90922712  0.34181196     0.20200
C1989       C  0.33639191  0.91685661  0.35248394    -0.13400
C1990       C  0.33606138  0.93292053  0.35283127    -0.11700
C1991       C  0.34658294  0.89274460  0.34193052     0.01100
C1992       C  0.34764011  0.87896821  0.34267233    -0.31700
C1993       C  0.34528274  0.95786333  0.34329314     0.02500
C1994       C  0.34605956  0.97163930  0.34432579    -0.33400
H1995       H  0.36141603  0.94020968  0.32378760     0.13600
H1996       H  0.36199960  0.91187648  0.32317883     0.13400
H1997       H  0.32951314  0.91039706  0.36062783     0.13300
H1998       H  0.32893265  0.93873132  0.36123914     0.12300
C1999       C  0.27814950  0.64727165  0.20103651     0.18600
C2000       C  0.29399593  0.64981608  0.19948441    -0.10500
C2001       C  0.30267021  0.64081061  0.18934547    -0.11300
C2002       C  0.29555623  0.62917427  0.18074807     0.20200
C2003       C  0.27965717  0.62684135  0.18207412    -0.13400
C2004       C  0.27097821  0.63587918  0.19217793    -0.11700
C2005       C  0.30461813  0.61938065  0.17090084     0.01100
C2006       C  0.31221955  0.61107482  0.16277782    -0.31700
C2007       C  0.26945957  0.65568979  0.21236072     0.02500
C2008       C  0.26267188  0.66214253  0.22260465    -0.33400
H2009       H  0.29968747  0.65853678  0.20632739     0.13600
H2010       H  0.31494605  0.64274033  0.18840890     0.13400
H2011       H  0.27401726  0.61790112  0.17547497     0.13300
H2012       H  0.25874546  0.63381416  0.19327259     0.12300
C2013       C  0.29765215  0.63157045  0.82011375     0.18600
C2014       C  0.28263567  0.62694090  0.81650535    -0.10500
C2015       C  0.27392364  0.63536323  0.80591433    -0.11300
C2016       C  0.28018892  0.64846348  0.79891081     0.20200
C2017       C  0.29510116  0.65324479  0.80271834    -0.13400
C2018       C  0.30381299  0.64481702  0.81329651    -0.11700
C2019       C  0.27169395  0.65648670  0.78719464     0.01100
C2020       C  0.26512400  0.66268112  0.77667213    -0.31700
C2021       C  0.30690571  0.62247010  0.83040336     0.02500
C2022       C  0.31477469  0.61464782  0.83872778    -0.33400
H2023       H  0.27776315  0.61670627  0.82168890     0.13600
H2024       H  0.26243184  0.63152107  0.80299073     0.13400
H2025       H  0.30007752  0.66331914  0.79731578     0.13300
H2026       H  0.31541489  0.64849040  0.81598059     0.12300
C2027       C  0.34606534  0.57838726  0.98438079     0.18600
C2028       C  0.35931265  0.58122358  0.99309921    -0.10500
C2029       C  0.35863935  0.58076411  0.00915481    -0.11300
C2030       C  0.34471430  0.57746681  0.01656389     0.20200
C2031       C  0.33142602  0.57477038  0.00785385    -0.13400
C2032       C  0.33209997  0.57523018  0.99178437    -0.11700
C2033       C  0.34421778  0.57638549  0.03306356     0.01100
C2034       C  0.34428341  0.57504472  0.04685738    -0.31700
C2035       C  0.34694603  0.57831270  0.96786361     0.02500
C2036       C  0.34809990  0.57789613  0.95406041    -0.33400
H2037       H  0.37017669  0.58363415  0.98748711     0.13600
H2038       H  0.36899230  0.58281775  0.01577973     0.13400
H2039       H  0.32061115  0.57216293  0.01347077     0.13300
H2040       H  0.32179725  0.57298016  0.98514659     0.12300
C2041       C  0.70339304  0.22213953  0.18136154     0.18600
C2042       C  0.71833773  0.22658518  0.18541826    -0.10500
C2043       C  0.72681813  0.21768688  0.19577766    -0.11300
C2044       C  0.72035879  0.20437135  0.20214371     0.20200
C2045       C  0.70546967  0.19986366  0.19798080    -0.13400
C2046       C  0.69701816  0.20870636  0.18756543    -0.11700
C2047       C  0.72869088  0.19574647  0.21348899     0.01100
C2048       C  0.73518851  0.18893312  0.22363598    -0.31700
C2049       C  0.69443902  0.23149259  0.17111208     0.02500
C2050       C  0.68660266  0.23920602  0.16270341    -0.33400
H2051       H  0.72335930  0.23696950  0.18069556     0.13600
H2052       H  0.73830506  0.22126638  0.19895270     0.13400
H2053       H  0.70031404  0.18967756  0.20296367     0.13300
H2054       H  0.68545645  0.20519321  0.18451468     0.12300
C2055       C  0.71947646  0.20564951  0.79613512     0.18600
C2056       C  0.72479826  0.22028735  0.80029877    -0.10500
C2057       C  0.71641371  0.22926996  0.81069561    -0.11300
C2058       C  0.70265224  0.22366897  0.81695775     0.20200
C2059       C  0.69740338  0.20897946  0.81289201    -0.13400
C2060       C  0.70579535  0.19999831  0.80250870    -0.11700
C2061       C  0.69381542  0.23304950  0.82737377     0.01100
C2062       C  0.68629819  0.24086634  0.83602910    -0.31700
C2063       C  0.72772850  0.19670669  0.78489397     0.02500
C2064       C  0.73437979  0.18970507  0.77492939    -0.33400
H2065       H  0.73531807  0.22481451  0.79538342     0.13600
H2066       H  0.72058283  0.24061238  0.81374333     0.13400
H2067       H  0.68677886  0.20452700  0.81764841     0.13300
H2068       H  0.70154518  0.18873754  0.79933718     0.12300
C2069       C  0.65328054  0.26994784  0.01618698     0.18600
C2070       C  0.64770256  0.25717466  0.00808916    -0.10500
C2071       C  0.64792322  0.25709948  0.99199581    -0.11300
C2072       C  0.65372963  0.26979643  0.98393328     0.20200
C2073       C  0.65949452  0.28247972  0.99204030    -0.13400
C2074       C  0.65927270  0.28255526  0.00812574    -0.11700
C2075       C  0.65325353  0.27009877  0.96737866     0.01100
C2076       C  0.65242078  0.27094016  0.95355717    -0.31700
C2077       C  0.65238847  0.27035089  0.03271807     0.02500
C2078       C  0.65124938  0.27101990  0.04652382    -0.33400
H2079       H  0.64301064  0.24737874  0.01420295     0.13600
H2080       H  0.64339224  0.24725073  0.98585092     0.13400
H2081       H  0.66396681  0.29238034  0.98592936     0.13300
H2082       H  0.66358264  0.29250832  0.01426336     0.12300
C2083       C  0.28071212  0.12965516  0.71946872     0.18600
C2084       C  0.29641474  0.12759199  0.72244168    -0.10500
C2085       C  0.30500163  0.11722130  0.71363585    -0.11300
C2086       C  0.29792947  0.10885477  0.70181454     0.20200
C2087       C  0.28221147  0.11089505  0.69885897    -0.13400
C2088       C  0.27362511  0.12128575  0.70765671    -0.11700
C2089       C  0.30682231  0.09826285  0.69268806     0.01100
C2090       C  0.31432898  0.08946086  0.68502602    -0.31700
C2091       C  0.27202980  0.14068830  0.72824109     0.02500
C2092       C  0.26513813  0.15046779  0.73525744    -0.33400
H2093       H  0.30202787  0.13406201  0.73149452     0.13600
H2094       H  0.31714767  0.11576457  0.71600724     0.13400
H2095       H  0.27662389  0.10451328  0.68973122     0.13300
H2096       H  0.26151732  0.12286242  0.70519173     0.12300
C2097       C  0.27958406  0.72302623  0.71927834     0.18600
C2098       C  0.29088385  0.73219870  0.72620114    -0.10500
C2099       C  0.29956613  0.74241331  0.71728648    -0.11300
C2100       C  0.29699198  0.74349820  0.70140854     0.20200
C2101       C  0.28556562  0.73444937  0.69452205    -0.13400
C2102       C  0.27689049  0.72423266  0.70343408    -0.11700
C2103       C  0.30620982  0.75372017  0.69217008     0.01100
C2104       C  0.31401966  0.76224068  0.68448281    -0.31700
C2105       C  0.27126447  0.71185958  0.72824095     0.02500
C2106       C  0.26478017  0.70177758  0.73522535    -0.33400
H2107       H  0.29309725  0.73132361  0.73842884     0.13600
H2108       H  0.30836722  0.74934984  0.72273884     0.13400
H2109       H  0.28347165  0.73518271  0.68226143     0.13300
H2110       H  0.26823485  0.71713802  0.69794866     0.12300
C2111       C  0.34281851  0.94167032  0.64989435     0.18600
C2112       C  0.33996134  0.93337691  0.66342125    -0.10500
C2113       C  0.33998138  0.91727480  0.66317539    -0.11300
C2114       C  0.34286082  0.90940601  0.64940508     0.20200
C2115       C  0.34551012  0.91770535  0.63584679    -0.13400
C2116       C  0.34548922  0.93379067  0.63609199    -0.11700
C2117       C  0.34367569  0.89286130  0.64925615     0.01100
C2118       C  0.34498911  0.87905497  0.64891428    -0.31700
C2119       C  0.34346791  0.95822647  0.65018025     0.02500
C2120       C  0.34454485  0.97205896  0.64987926    -0.33400
H2121       H  0.33790609  0.93934337  0.67416402     0.13600
H2122       H  0.33795464  0.91097475  0.67373494     0.13400
H2123       H  0.34778719  0.91174798  0.62514182     0.13300
H2124       H  0.34773708  0.94007846  0.62556850     0.12300
C2125       C  0.20183806  0.20417355  0.72185382     0.18600
C2126       C  0.20188512  0.22024938  0.72284902    -0.10500
C2127       C  0.19162992  0.22887954  0.71400065    -0.11300
C2128       C  0.18130708  0.22146037  0.70411271     0.20200
C2129       C  0.18116662  0.20536661  0.70320428    -0.13400
C2130       C  0.19142919  0.19672538  0.71207219    -0.11700
C2131       C  0.17102327  0.23040787  0.69478465     0.01100
C2132       C  0.16257839  0.23813756  0.68699911    -0.31700
C2133       C  0.21301653  0.19546539  0.73030303     0.02500
C2134       C  0.22328335  0.18889166  0.73684474    -0.33400
H2135       H  0.20997041  0.22610373  0.73031166     0.13600
H2136       H  0.19183788  0.24131842  0.71476360     0.13400
H2137       H  0.17323071  0.19953024  0.69557332     0.13300
H2138       H  0.19136164  0.18429574  0.71118815     0.12300
C2139       C  0.79720726  0.20347985  0.72013733     0.18600
C2140       C  0.80801126  0.21289407  0.72750624    -0.10500
C2141       C  0.81829327  0.22169389  0.71879185    -0.11300
C2142       C  0.81778530  0.22112118  0.70268789     0.20200
C2143       C  0.80711793  0.21153554  0.69534075    -0.13400
C2144       C  0.79685296  0.20273554  0.70404712    -0.11700
C2145       C  0.82802758  0.23052225  0.69369354     0.01100
C2146       C  0.83655196  0.23838958  0.68608929    -0.31700
C2147       C  0.78594465  0.19519863  0.72896838     0.02500
C2148       C  0.77569666  0.18876062  0.73572063    -0.33400
H2149       H  0.80833661  0.21359473  0.73994345     0.13600
H2150       H  0.82650379  0.22905936  0.72459010     0.13400
H2151       H  0.80662608  0.21099754  0.68290140     0.13300
H2152       H  0.78849438  0.19553994  0.69824164     0.12300
C2153       C  0.01647896  0.27387184  0.65643284     0.18600
C2154       C  0.00767686  0.28488044  0.66424973    -0.10500
C2155       C  0.99160901  0.28394256  0.66407935    -0.11300
C2156       C  0.98429818  0.27199159  0.65609885     0.20200
C2157       C  0.99311453  0.26094721  0.64836578    -0.13400
C2158       C  0.00916415  0.26188387  0.64853653    -0.11700
C2159       C  0.96777492  0.27134164  0.65536857     0.01100
C2160       C  0.95397112  0.27112001  0.65408621    -0.31700
C2161       C  0.03298387  0.27500083  0.65618612     0.02500
C2162       C  0.04679989  0.27579595  0.65541831    -0.33400
H2163       H  0.01321773  0.29422813  0.67035046     0.13600
H2164       H  0.98489814  0.29259085  0.67003229     0.13400
H2165       H  0.98758289  0.25170777  0.64209392     0.13300
H2166       H  0.01586146  0.25334327  0.64241352     0.12300
C2167       C  0.71816182  0.12684346  0.27736279     0.18600
C2168       C  0.70215616  0.12687183  0.27552023    -0.10500
C2169       C  0.69310399  0.11638310  0.28367207    -0.11300
C2170       C  0.70003348  0.10585307  0.29370269     0.20200
C2171       C  0.71605079  0.10575352  0.29546115    -0.13400
C2172       C  0.72510514  0.11623531  0.28729366    -0.11700
C2173       C  0.69069507  0.09532667  0.30236455     0.01100
C2174       C  0.68286069  0.08664481  0.30978344    -0.31700
C2175       C  0.72735069  0.13806469  0.26946985     0.02500
C2176       C  0.73448642  0.14811474  0.26316376    -0.33400
H2177       H  0.69668132  0.13508773  0.26791216     0.13600
H2178       H  0.68072524  0.11656179  0.28225515     0.13400
H2179       H  0.72151137  0.09766205  0.30320921     0.13300
H2180       H  0.73746650  0.11615239  0.28880722     0.12300
C2181       C  0.70323591  0.74056505  0.29592196     0.18600
C2182       C  0.69589935  0.72976791  0.28647082    -0.10500
C2183       C  0.70463869  0.71950170  0.27770093    -0.11300
C2184       C  0.72073583  0.72001033  0.27835498     0.20200
C2185       C  0.72806084  0.73089577  0.28769283    -0.13400
C2186       C  0.71932774  0.74115507  0.29646064    -0.11700
C2187       C  0.72969363  0.70903654  0.26984461     0.01100
C2188       C  0.73676956  0.69925146  0.26305721    -0.31700
C2189       C  0.69429475  0.75095129  0.30517112     0.02500
C2190       C  0.68694277  0.75970575  0.31299588    -0.33400
H2191       H  0.68345960  0.72922401  0.28596457     0.13600
H2192       H  0.69886613  0.71110029  0.27052774     0.13400
H2193       H  0.74049173  0.73137590  0.28827949     0.13300
H2194       H  0.72510903  0.74947001  0.30372134     0.12300
C2195       C  0.65401395  0.94006801  0.34399699     0.18600
C2196       C  0.64151281  0.93151958  0.33850883    -0.10500
C2197       C  0.64230240  0.91547337  0.33811561    -0.11300
C2198       C  0.65559714  0.90793087  0.34320058     0.20200
C2199       C  0.66814085  0.91647826  0.34859831    -0.13400
C2200       C  0.66735148  0.93253452  0.34899022    -0.11700
C2201       C  0.65607537  0.89142407  0.34344320     0.01100
C2202       C  0.65572526  0.87760778  0.34423260    -0.31700
C2203       C  0.65301218  0.95653550  0.34480002     0.02500
C2204       C  0.65192186  0.97030646  0.34571931    -0.33400
H2205       H  0.63113177  0.93724536  0.33466908     0.13600
H2206       H  0.63250925  0.90895023  0.33400710     0.13400
H2207       H  0.67843570  0.91073681  0.35263868     0.13300
H2208       H  0.67705879  0.93905503  0.35329840     0.12300
C2209       C  0.20225159  0.64596266  0.27937923     0.18600
C2210       C  0.19954216  0.64974415  0.29480626    -0.10500
C2211       C  0.18935352  0.64093300  0.30360842    -0.11300
C2212       C  0.18183050  0.62828472  0.29703183     0.20200
C2213       C  0.18445970  0.62456316  0.28156668    -0.13400
C2214       C  0.19466321  0.63337332  0.27276214    -0.11700
C2215       C  0.17160068  0.61902615  0.30621436     0.01100
C2216       C  0.16313716  0.61126715  0.31401111    -0.31700
C2217       C  0.21326582  0.65463596  0.27057080     0.02500
C2218       C  0.22314444  0.66151716  0.26368107    -0.33400
H2219       H  0.20541501  0.65939908  0.30005965     0.13600
H2220       H  0.18743207  0.64390722  0.31555496     0.13400
H2221       H  0.17872658  0.61479765  0.27636413     0.13300
H2222       H  0.19674787  0.63028640  0.26087219     0.12300
C2223       C  0.79768567  0.64389051  0.27842725     0.18600
C2224       C  0.79785938  0.64597428  0.29440025    -0.10500
C2225       C  0.80784956  0.63731925  0.30354809    -0.11300
C2226       C  0.81768486  0.62651394  0.29676516     0.20200
C2227       C  0.81754608  0.62444960  0.28078110    -0.13400
C2228       C  0.80757182  0.63314003  0.27162422    -0.11700
C2229       C  0.82790587  0.61758306  0.30621878     0.01100
C2230       C  0.83647841  0.61019499  0.31421705    -0.31700
C2231       C  0.78697040  0.65243226  0.26917631     0.02500
C2232       C  0.77719084  0.65930588  0.26216747    -0.33400
H2233       H  0.79020928  0.65421189  0.29977954     0.13600
H2234       H  0.80786581  0.63900705  0.31589362     0.13400
H2235       H  0.82511271  0.61612756  0.27541931     0.13300
H2236       H  0.80753395  0.63144826  0.25929183     0.12300
C2237       C  0.01621473  0.58042609  0.34762114     0.18600
C2238       C  0.00819872  0.58480272  0.33433831    -0.10500
C2239       C  0.99209947  0.58499573  0.33434736    -0.11300
C2240       C  0.98399361  0.58081595  0.34764106     0.20200
C2241       C  0.99202694  0.57648239  0.36091151    -0.13400
C2242       C  0.00809242  0.57628913  0.36090226    -0.11700
C2243       C  0.96745378  0.58068612  0.34770957     0.01100
C2244       C  0.95363236  0.57999237  0.34844070    -0.31700
C2245       C  0.03274897  0.57996747  0.34768051     0.02500
C2246       C  0.04656552  0.57914690  0.34836820    -0.33400
H2247       H  0.01437582  0.58799412  0.32399674     0.13600
H2248       H  0.98599164  0.58832605  0.32401074     0.13400
H2249       H  0.98586995  0.57318984  0.37123598     0.13300
H2250       H  0.01417765  0.57285759  0.37122163     0.12300
C2251       C  0.72253716  0.64352576  0.20085938     0.18600
C2252       C  0.71085513  0.64983637  0.19172946    -0.10500
C2253       C  0.70236316  0.64039529  0.18183743    -0.11300
C2254       C  0.70550207  0.62459849  0.18104454     0.20200
C2255       C  0.71732137  0.61832977  0.19002944    -0.13400
C2256       C  0.72581694  0.62777065  0.19990947    -0.11700
C2257       C  0.69645946  0.61481615  0.17118723     0.01100
C2258       C  0.68874667  0.60677732  0.16291339    -0.31700
C2259       C  0.73063101  0.65296238  0.21179659     0.02500
C2260       C  0.73709678  0.66001942  0.22183695    -0.33400
H2261       H  0.70818095  0.66198057  0.19240647     0.13600
H2262       H  0.69325854  0.64537329  0.17493882     0.13400
H2263       H  0.71985900  0.60613982  0.18951349     0.13300
H2264       H  0.73478762  0.62275708  0.20696249     0.12300
C2265       C  0.70269470  0.63156378  0.81804058     0.18600
C2266       C  0.69599668  0.64197580  0.80773730    -0.10500
C2267       C  0.70523692  0.65031799  0.79757343    -0.11300
C2268       C  0.72121623  0.64828052  0.79766076     0.20200
C2269       C  0.72795712  0.63799475  0.80807465    -0.13400
C2270       C  0.71870325  0.62965445  0.81826853    -0.11700
C2271       C  0.73050298  0.65622347  0.78653535     0.01100
C2272       C  0.73742606  0.66254024  0.77633269    -0.31700
C2273       C  0.69308680  0.62275345  0.82822352     0.02500
C2274       C  0.68483835  0.61549038  0.83666743    -0.33400
H2275       H  0.68363657  0.64354059  0.80747248     0.13600
H2276       H  0.69991670  0.65820769  0.78952134     0.13400
H2277       H  0.74030143  0.63629755  0.80818409     0.13300
H2278       H  0.72399603  0.62163532  0.82620393     0.12300
C2279       C  0.65179828  0.58213621  0.01632251     0.18600
C2280       C  0.63888808  0.58747197  0.00829891    -0.10500
C2281       C  0.63923589  0.58850560  0.99226022    -0.11300
C2282       C  0.65249536  0.58421609  0.98417562     0.20200
C2283       C  0.66546305  0.57900969  0.99219869    -0.13400
C2284       C  0.66511601  0.57797741  0.00825102    -0.11700
C2285       C  0.65250530  0.58457116  0.96764415     0.01100
C2286       C  0.65176719  0.58427751  0.95381355    -0.31700
C2287       C  0.65123039  0.58059343  0.03278438     0.02500
C2288       C  0.65053300  0.57901974  0.04653738    -0.33400
H2289       H  0.62852047  0.59067920  0.01442334     0.13600
H2290       H  0.62912075  0.59247160  0.98615730     0.13400
H2291       H  0.67574707  0.57559095  0.98604869     0.13300
H2292       H  0.67514944  0.57380043  0.01434568     0.12300
C2293       C  0.20483625  0.64485111  0.71988154     0.18600
C2294       C  0.20356237  0.64743975  0.70402975    -0.10500
C2295       C  0.19307491  0.63893946  0.69529255    -0.11300
C2296       C  0.18381197  0.62780683  0.70236484     0.20200
C2297       C  0.18503306  0.62526171  0.71823903    -0.13400
C2298       C  0.19553721  0.63376355  0.72698410    -0.11700
C2299       C  0.17317192  0.61893469  0.69329724     0.01100
C2300       C  0.16435046  0.61150653  0.68559439    -0.31700
C2301       C  0.21599124  0.65329561  0.72870473     0.02500
C2302       C  0.22588622  0.66020923  0.73551925    -0.33400
H2303       H  0.21074361  0.65594771  0.69841954     0.13600
H2304       H  0.19224020  0.64099156  0.68303060     0.13400
H2305       H  0.17793533  0.61667159  0.72382378     0.13300
H2306       H  0.19647559  0.63163524  0.73922675     0.12300
C2307       C  0.79780253  0.64599709  0.71995566     0.18600
C2308       C  0.80317039  0.65153867  0.70581083    -0.10500
C2309       C  0.81338189  0.64271058  0.69707095    -0.11300
C2310       C  0.81823674  0.62830867  0.70244194     0.20200
C2311       C  0.81293267  0.62281920  0.71663664    -0.13400
C2312       C  0.80272115  0.63164402  0.72537482    -0.11700
C2313       C  0.82851063  0.61909160  0.69332441     0.01100
C2314       C  0.83706189  0.61131280  0.68567893    -0.31700
C2315       C  0.78676821  0.65473223  0.72859496     0.02500
C2316       C  0.77687528  0.66161633  0.73540659    -0.33400
H2317       H  0.79934938  0.66258714  0.70148491     0.13600
H2318       H  0.81739808  0.64705104  0.68610122     0.13400
H2319       H  0.81659883  0.61169070  0.72088285     0.13300
H2320       H  0.79854842  0.62722279  0.73625604     0.12300
C2321       C  0.01617536  0.58459886  0.65258858     0.18600
C2322       C  0.00829211  0.59449016  0.64259721    -0.10500
C2323       C  0.99220669  0.59434974  0.64213813    -0.11300
C2324       C  0.98393810  0.58431298  0.65166310     0.20200
C2325       C  0.99181462  0.57460983  0.66184005    -0.13400
C2326       C  0.00789611  0.57475039  0.66229935    -0.11700
C2327       C  0.96743550  0.58351996  0.65057171     0.01100
C2328       C  0.95366761  0.58233413  0.64940261    -0.31700
C2329       C  0.03272321  0.58400915  0.65234957     0.02500
C2330       C  0.04652936  0.58288864  0.65163771    -0.33400
H2331       H  0.01457576  0.60211080  0.63499587     0.13600
H2332       H  0.98623664  0.60187407  0.63419923     0.13400
H2333       H  0.98554022  0.56677534  0.66922967     0.13300
H2334       H  0.01387032  0.56701204  0.67002714     0.12300
C2335       C  0.70342939  0.10639210  0.70245458     0.18600
C2336       C  0.69859167  0.11028184  0.71733144    -0.10500
C2337       C  0.70728550  0.12048011  0.72623843    -0.11300
C2338       C  0.72087986  0.12680157  0.72032518     0.20200
C2339       C  0.72583861  0.12275363  0.70553404    -0.13400
C2340       C  0.71713373  0.11256619  0.69661970    -0.11700
C2341       C  0.72927273  0.13806369  0.72907381     0.01100
C2342       C  0.73577838  0.14826657  0.73584318    -0.31700
C2343       C  0.69418121  0.09632254  0.69309049     0.02500
C2344       C  0.68631253  0.08796081  0.68529631    -0.33400
H2345       H  0.68801607  0.10558703  0.72196146     0.13600
H2346       H  0.70329351  0.12361354  0.73761869     0.13400
H2347       H  0.73629364  0.12764210  0.70082120     0.13300
H2348       H  0.72098548  0.10964859  0.68513436     0.12300
C2349       C  0.70318450  0.74331215  0.70271758     0.18600
C2350       C  0.69665098  0.73573784  0.71535384    -0.10500
C2351       C  0.70549868  0.72550952  0.72405591    -0.11300
C2352       C  0.72091870  0.72287581  0.72018617     0.20200
C2353       C  0.72748590  0.73054957  0.70763959    -0.13400
C2354       C  0.71863416  0.74075140  0.69891956    -0.11700
C2355       C  0.72980021  0.71183067  0.72867687     0.01100
C2356       C  0.73681108  0.70193660  0.73536777    -0.31700
C2357       C  0.69399407  0.75348572  0.69347162     0.02500
C2358       C  0.68640918  0.76193226  0.68552715    -0.33400
H2359       H  0.68470636  0.73761451  0.71836870     0.13600
H2360       H  0.70028025  0.71951993  0.73365326     0.13400
H2361       H  0.73937507  0.72852381  0.70451191     0.13300
H2362       H  0.72378615  0.74653150  0.68915365     0.12300
C2363       C  0.65465575  0.94081988  0.65486860     0.18600
C2364       C  0.65177338  0.93182623  0.66793526    -0.10500
C2365       C  0.65271313  0.91577634  0.66704620    -0.11300
C2366       C  0.65653693  0.90867640  0.65308809     0.20200
C2367       C  0.65961036  0.91768579  0.64009035    -0.13400
C2368       C  0.65867143  0.93371273  0.64097772    -0.11700
C2369       C  0.65670853  0.89216965  0.65187485     0.01100
C2370       C  0.65630753  0.87839618  0.65033573    -0.31700
C2371       C  0.65307182  0.95729055  0.65550757     0.02500
C2372       C  0.65147668  0.97106762  0.65534715    -0.33400
H2373       H  0.64862727  0.93719951  0.67872726     0.13600
H2374       H  0.65026491  0.90891381  0.67715685     0.13400
H2375       H  0.66252550  0.91231566  0.62923039     0.13300
H2376       H  0.66089021  0.94054962  0.63079589     0.12300
C2377       C  0.94666324  0.86970308  0.34566501     0.18600
C2378       C  0.93812343  0.86386235  0.33329891    -0.10500
C2379       C  0.92721759  0.85226068  0.33578023    -0.11300
C2380       C  0.92482135  0.84646294  0.35063460     0.20200
C2381       C  0.93339828  0.85228925  0.36297031    -0.13400
C2382       C  0.94428133  0.86386725  0.36049399    -0.11700
C2383       C  0.91351644  0.83465129  0.35336811     0.01100
C2384       C  0.90418544  0.82490450  0.35662541    -0.31700
C2385       C  0.95782462  0.88171655  0.34327679     0.02500
C2386       C  0.96729876  0.89178807  0.34210793    -0.33400
H2387       H  0.93986671  0.86829020  0.32178288     0.13600
H2388       H  0.92064609  0.84785303  0.32615635     0.13400
H2389       H  0.93164122  0.84790955  0.37450526     0.13300
H2390       H  0.95081016  0.86829285  0.37014225     0.12300
C2391       C  0.07645313  0.84733274  0.34631288     0.18600
C2392       C  0.06102352  0.84336435  0.34383304    -0.10500
C2393       C  0.04994425  0.85487743  0.34180572    -0.11300
C2394       C  0.05423544  0.87041933  0.34225767     0.20200
C2395       C  0.06969240  0.87437273  0.34455248    -0.13400
C2396       C  0.08076404  0.86286741  0.34657739    -0.11700
C2397       C  0.04273997  0.88230650  0.34095296     0.01100
C2398       C  0.03309991  0.89229129  0.34049106    -0.31700
C2399       C  0.08771312  0.83556557  0.34943959     0.02500
C2400       C  0.09712853  0.82606624  0.35316243    -0.33400
H2401       H  0.05752739  0.83140190  0.34371061     0.13600
H2402       H  0.03802208  0.85167236  0.34010897     0.13400
H2403       H  0.07314555  0.88634039  0.34499551     0.13300
H2404       H  0.09263328  0.86608702  0.34859223     0.12300
C2405       C  0.94538556  0.97994365  0.34631030     0.18600
C2406       C  0.93039546  0.97811208  0.34065467    -0.10500
C2407       C  0.91926614  0.98942033  0.34344696    -0.11300
C2408       C  0.92307730  0.00261142  0.35190322     0.20200
C2409       C  0.93808848  0.00447275  0.35746780    -0.13400
C2410       C  0.94920362  0.99318005  0.35467817    -0.11700
C2411       C  0.91155603  0.01405932  0.35524458     0.01100
C2412       C  0.90212177  0.02363067  0.35872200    -0.31700
C2413       C  0.95676514  0.96811230  0.34394932     0.02500
C2414       C  0.96649267  0.95828440  0.34269584    -0.33400
H2415       H  0.92728619  0.96790551  0.33421786     0.13600
H2416       H  0.90768576  0.98782315  0.33913323     0.13400
H2417       H  0.94116299  0.01458684  0.36406785     0.13300
H2418       H  0.96073169  0.99470461  0.35915870     0.12300
C2419       C  0.05457363  0.97972262  0.34410685     0.18600
C2420       C  0.06991655  0.97491891  0.34520607    -0.10500
C2421       C  0.08155224  0.98566326  0.34801482    -0.11300
C2422       C  0.07788948  0.00125940  0.34973178     0.20200
C2423       C  0.06256717  0.00609217  0.34847777    -0.13400
C2424       C  0.05092700  0.99534418  0.34567161    -0.11700
C2425       C  0.08973720  0.01220655  0.35339744     0.01100
C2426       C  0.09942357  0.02136252  0.35719181    -0.31700
C2427       C  0.04255914  0.96852350  0.34205506     0.02500
C2428       C  0.03266812  0.95884743  0.34114254    -0.33400
H2429       H  0.07285011  0.96285662  0.34410357     0.13600
H2430       H  0.09335197  0.98179339  0.34904816     0.13400
H2431       H  0.05960558  0.01811753  0.34987170     0.13300
H2432       H  0.03909261  0.99917388  0.34493209     0.12300
C2433       C  0.92462961  0.84809875  0.65128244     0.18600
C2434       C  0.94029711  0.84432405  0.65112116    -0.10500
C2435       C  0.95137834  0.85567665  0.65382165    -0.11300
C2436       C  0.94686601  0.87087782  0.65670178     0.20200
C2437       C  0.93118847  0.87462557  0.65708918    -0.13400
C2438       C  0.92009529  0.86326083  0.65438622    -0.11700
C2439       C  0.95835291  0.88267941  0.65861323     0.01100
C2440       C  0.96818998  0.89243451  0.65949352    -0.31700
C2441       C  0.91330905  0.83657686  0.64751890     0.02500
C2442       C  0.90409335  0.82699004  0.64352172    -0.33400
H2443       H  0.94395089  0.83266604  0.64866399     0.13600
H2444       H  0.96346061  0.85265154  0.65343134     0.13400
H2445       H  0.92755855  0.88635040  0.65924407     0.13300
H2446       H  0.90802120  0.86633838  0.65447135     0.12300
C2447       C  0.92602865  0.00343032  0.64843425     0.18600
C2448       C  0.93561818  0.99864368  0.63639605    -0.10500
C2449       C  0.94672173  0.98728657  0.63893619    -0.11300
C2450       C  0.94830613  0.98063505  0.65352971     0.20200
C2451       C  0.93877154  0.98546559  0.66560054    -0.13400
C2452       C  0.92765201  0.99683872  0.66305676    -0.11700
C2453       C  0.95959731  0.96875249  0.65598538     0.01100
C2454       C  0.96910958  0.95874916  0.65742085    -0.31700
C2455       C  0.91438717  0.01488862  0.64561960     0.02500
C2456       C  0.90466957  0.02425717  0.64239338    -0.33400
H2457       H  0.93445351  0.00362995  0.62503407     0.13600
H2458       H  0.95401343  0.98363966  0.62951165     0.13400
H2459       H  0.93988124  0.98039708  0.67692920     0.13300
H2460       H  0.92028522  0.00042415  0.67244355     0.12300
C2461       C  0.07673701  0.84608200  0.65356864     0.18600
C2462       C  0.06301756  0.84281428  0.66139635    -0.10500
C2463       C  0.05235397  0.85455471  0.66425923    -0.11300
C2464       C  0.05536755  0.86961326  0.65931292     0.20200
C2465       C  0.06922312  0.87291375  0.65177056    -0.13400
C2466       C  0.07986734  0.86119446  0.64891282    -0.11700
C2467       C  0.04396876  0.88152450  0.66117126     0.01100
C2468       C  0.03439503  0.89157337  0.66168659    -0.31700
C2469       C  0.08727967  0.83390588  0.64959208     0.02500
C2470       C  0.09613037  0.82409231  0.64532332    -0.33400
H2471       H  0.06043971  0.83116986  0.66501470     0.13600
H2472       H  0.04165753  0.85184059  0.67004824     0.13400
H2473       H  0.07166343  0.88448524  0.64783256     0.13300
H2474       H  0.09040174  0.86386197  0.64281035     0.12300
C2475       C  0.07676564  0.00403822  0.65127725     0.18600
C2476       C  0.06278404  0.00413522  0.64327818    -0.10500
C2477       C  0.05194521  0.99254537  0.64584851    -0.11300
C2478       C  0.05503751  0.98078609  0.65642238     0.20200
C2479       C  0.06898374  0.98072864  0.66450447    -0.13400
C2480       C  0.07984039  0.99233771  0.66192950    -0.11700
C2481       C  0.04405134  0.96859370  0.65858491     0.01100
C2482       C  0.03466466  0.95843526  0.65959024    -0.31700
C2483       C  0.08806761  0.01570107  0.64812705     0.02500
C2484       C  0.09729465  0.02538348  0.64449428    -0.33400
H2485       H  0.06032673  0.01308597  0.63495949     0.13600
H2486       H  0.04122690  0.99266988  0.63949293     0.13400
H2487       H  0.07151284  0.97165554  0.67266370     0.13300
H2488       H  0.09065204  0.99211647  0.66811895     0.12300
C2489       C  0.34355246  0.87045975  0.94631509     0.18600
C2490       C  0.34328737  0.85492097  0.95060087    -0.10500
C2491       C  0.34604389  0.84348655  0.93962036    -0.11300
C2492       C  0.34907817  0.84754949  0.92431962     0.20200
C2493       C  0.34907640  0.86307465  0.91999219    -0.13400
C2494       C  0.34631889  0.87450236  0.93096605    -0.11700
C2495       C  0.35295799  0.83587421  0.91324568     0.01100
C2496       C  0.35699668  0.82621482  0.90415496    -0.31700
C2497       C  0.34179060  0.88228339  0.95775593     0.02500
C2498       C  0.34117172  0.89229343  0.96732432    -0.33400
H2499       H  0.34123124  0.85166923  0.96245376     0.13600
H2500       H  0.34608587  0.83152023  0.94310569     0.13400
H2501       H  0.35147798  0.86635083  0.90821130     0.13300
H2502       H  0.34662150  0.88648407  0.92754531     0.12300
C2503       C  0.35314822  0.84776881  0.07626288     0.18600
C2504       C  0.36479399  0.85148069  0.06575851    -0.10500
C2505       C  0.36229465  0.86277035  0.05458341    -0.11300
C2506       C  0.34813560  0.87042595  0.05385273     0.20200
C2507       C  0.33646270  0.86670017  0.06433282    -0.13400
C2508       C  0.33896557  0.85539271  0.07552440    -0.11700
C2509       C  0.34573335  0.88222256  0.04247552     0.01100
C2510       C  0.34430834  0.89216713  0.03290823    -0.31700
C2511       C  0.35589906  0.83622182  0.08781266     0.02500
C2512       C  0.35908024  0.82658803  0.09727096    -0.33400
H2513       H  0.37581237  0.84567827  0.06623701     0.13600
H2514       H  0.37141129  0.86556985  0.04655925     0.13400
H2515       H  0.32547817  0.87256412  0.06388734     0.13300
H2516       H  0.32988754  0.85263195  0.08360250     0.12300
C2517       C  0.34818361  0.00278296  0.92328107     0.18600
C2518       C  0.34940889  0.00656296  0.93889803    -0.10500
C2519       C  0.34663032  0.99540468  0.95015355    -0.11300
C2520       C  0.34260654  0.98039912  0.94585808     0.20200
C2521       C  0.34116366  0.97666608  0.93024108    -0.13400
C2522       C  0.34394517  0.98783409  0.91897587    -0.11700
C2523       C  0.34075340  0.96869096  0.95744441     0.01100
C2524       C  0.34015618  0.95885357  0.96721803    -0.31700
C2525       C  0.35191734  0.01407725  0.91174227     0.02500
C2526       C  0.35579089  0.02356933  0.90238904    -0.33400
H2527       H  0.35274329  0.01806121  0.94236344     0.13600
H2528       H  0.34786543  0.99840697  0.96218342     0.13400
H2529       H  0.33814208  0.96508188  0.92677831     0.13300
H2530       H  0.34302642  0.98475858  0.90693686     0.12300
C2531       C  0.34518960  0.97924447  0.05549978     0.18600
C2532       C  0.34263176  0.99481432  0.05222494    -0.10500
C2533       C  0.34496788  0.00592792  0.06361239    -0.11300
C2534       C  0.34986270  0.00151172  0.07831474     0.20200
C2535       C  0.35216610  0.98591695  0.08166663    -0.13400
C2536       C  0.34982776  0.97480264  0.07027947    -0.11700
C2537       C  0.35330352  0.01302757  0.08967676     0.01100
C2538       C  0.35702007  0.02273846  0.09883705    -0.31700
C2539       C  0.34365398  0.96789776  0.04356244     0.02500
C2540       C  0.34292288  0.95834432  0.03354945    -0.33400
H2541       H  0.33908335  0.99837414  0.04082286     0.13600
H2542       H  0.34322337  0.01796315  0.06088366     0.13400
H2543       H  0.35602024  0.98238571  0.09297827     0.13300
H2544       H  0.35187563  0.96279509  0.07291835     0.12300
C2545       C  0.92192107  0.27352436  0.92013569     0.18600
C2546       C  0.91854287  0.26475697  0.93323945    -0.10500
C2547       C  0.92975747  0.26256440  0.94458836    -0.11300
C2548       C  0.94438334  0.26914149  0.94288182     0.20200
C2549       C  0.94781331  0.27770727  0.92966861    -0.13400
C2550       C  0.93661584  0.27989430  0.91833513    -0.11700
C2551       C  0.95569374  0.26764191  0.95489998     0.01100
C2552       C  0.96521361  0.26706915  0.96498064    -0.31700
C2553       C  0.91018096  0.27667949  0.90888219     0.02500
C2554       C  0.90060810  0.28043790  0.89957192    -0.33400
H2555       H  0.90719843  0.25983726  0.93479242     0.13600
H2556       H  0.92695978  0.25595631  0.95477677     0.13400
H2557       H  0.95905937  0.28288703  0.92824065     0.13300
H2558       H  0.93933593  0.28675604  0.90829221     0.12300
C2559       C  0.07448265  0.27602099  0.92129490     0.18600
C2560       C  0.07780982  0.27949808  0.93667199    -0.10500
C2561       C  0.06675169  0.27704078  0.94808644    -0.11300
C2562       C  0.05229419  0.27109015  0.94419344     0.20200
C2563       C  0.04899846  0.26746057  0.92883341    -0.13400
C2564       C  0.06007279  0.26992362  0.91740111    -0.11700
C2565       C  0.04072669  0.26921180  0.95590047     0.01100
C2566       C  0.03103098  0.26826003  0.96577637    -0.31700
C2567       C  0.08568747  0.27929706  0.90953945     0.02500
C2568       C  0.09522135  0.28292847  0.90013594    -0.33400
H2569       H  0.08888256  0.28428227  0.93980711     0.13600
H2570       H  0.06940884  0.27994477  0.95990897     0.13400
H2571       H  0.03783473  0.26290652  0.92568267     0.13300
H2572       H  0.05734496  0.26725592  0.90554036     0.12300
C2573       C  0.92103089  0.27251149  0.07631673     0.18600
C2574       C  0.91659372  0.27086451  0.06091648    -0.10500
C2575       C  0.92773557  0.26893194  0.04948007    -0.11300
C2576       C  0.94336279  0.26865353  0.05339396     0.20200
C2577       C  0.94780208  0.27020582  0.06880889    -0.13400
C2578       C  0.93665657  0.27213940  0.08024873    -0.11700
C2579       C  0.95483882  0.26728415  0.04155049     0.01100
C2580       C  0.96449355  0.26672605  0.03161786    -0.31700
C2581       C  0.90960996  0.27531541  0.08795516     0.02500
C2582       C  0.90016402  0.27869478  0.09751788    -0.33400
H2583       H  0.90455150  0.27126100  0.05773694     0.13600
H2584       H  0.92418322  0.26782804  0.03758813     0.13400
H2585       H  0.95986025  0.27009236  0.07195168     0.13300
H2586       H  0.94022025  0.27352747  0.09210781     0.12300
C2587       C  0.05146969  0.27025272  0.05425044     0.18600
C2588       C  0.06617786  0.26397539  0.05217863    -0.10500
C2589       C  0.07759735  0.26626344  0.06330962    -0.11300
C2590       C  0.07436290  0.27483376  0.07657805     0.20200
C2591       C  0.05959779  0.28093741  0.07873070    -0.13400
C2592       C  0.04818969  0.27865302  0.06760941    -0.11700
C2593       C  0.08627189  0.27790504  0.08771673     0.01100
C2594       C  0.09599478  0.28137315  0.09700907    -0.31700
C2595       C  0.03992304  0.26858375  0.04245484     0.02500
C2596       C  0.03030804  0.26779962  0.03246460    -0.33400
H2597       H  0.06887095  0.25749912  0.04188088     0.13600
H2598       H  0.08897749  0.26153199  0.06147897     0.13400
H2599       H  0.05696602  0.28763133  0.08890573     0.13300
H2600       H  0.03688537  0.28360574  0.06932977     0.12300
C2601       C  0.65279015  0.85073897  0.91969779     0.18600
C2602       C  0.65913789  0.84668409  0.93394497    -0.10500
C2603       C  0.66119160  0.85786608  0.94533045    -0.11300
C2604       C  0.65689976  0.87314563  0.94252104     0.20200
C2605       C  0.65081181  0.87725307  0.92817563    -0.13400
C2606       C  0.64876041  0.86607289  0.91679088    -0.11700
C2607       C  0.65807119  0.88443397  0.95457444     0.01100
C2608       C  0.65839365  0.89374185  0.96484816    -0.31700
C2609       C  0.64952224  0.83905620  0.90843103     0.02500
C2610       C  0.64573187  0.82930198  0.89933182    -0.33400
H2611       H  0.66220922  0.83484824  0.93635216     0.13600
H2612       H  0.66585256  0.85455247  0.95640123     0.13400
H2613       H  0.64739618  0.88902022  0.92589723     0.13300
H2614       H  0.64375724  0.86932020  0.90585020     0.12300
C2615       C  0.65071486  0.00314164  0.92329424     0.18600
C2616       C  0.65026662  0.00754190  0.93879793    -0.10500
C2617       C  0.65253256  0.99657556  0.95037020    -0.11300
C2618       C  0.65525321  0.98116602  0.94648141     0.20200
C2619       C  0.65599902  0.97684125  0.93097682    -0.13400
C2620       C  0.65373506  0.98779641  0.91941669    -0.11700
C2621       C  0.65659759  0.96965203  0.95832362     0.01100
C2622       C  0.65713423  0.95967424  0.96795478    -0.31700
C2623       C  0.64717607  0.01411919  0.91140353     0.02500
C2624       C  0.64327590  0.02297172  0.90145986    -0.33400
H2625       H  0.64786836  0.01936182  0.94193480     0.13600
H2626       H  0.65188582  0.00004798  0.96231875     0.13400
H2627       H  0.65804769  0.96495735  0.92783265     0.13300
H2628       H  0.65403477  0.98424671  0.90747653     0.12300
C2629       C  0.65109953  0.84569569  0.07489514     0.18600
C2630       C  0.64762576  0.86105826  0.07832837    -0.10500
C2631       C  0.64969501  0.87251813  0.06721669    -0.11300
C2632       C  0.65525073  0.86870916  0.05257553     0.20200
C2633       C  0.65896057  0.85337659  0.04919698    -0.13400
C2634       C  0.65688559  0.84189690  0.06032691    -0.11700
C2635       C  0.65661035  0.88047339  0.04093544     0.01100
C2636       C  0.65714767  0.89051987  0.03134738    -0.31700
C2637       C  0.64801153  0.83384724  0.08611071     0.02500
C2638       C  0.64443024  0.82435436  0.09560739    -0.33400
H2639       H  0.64309088  0.86414285  0.08951718     0.13600
H2640       H  0.64675382  0.88431102  0.06997040     0.13400
H2641       H  0.66323780  0.85027188  0.03791418     0.13300
H2642       H  0.65956287  0.83005932  0.05750232     0.12300
C2643       C  0.64766852  0.00014957  0.07839478     0.18600
C2644       C  0.64794888  0.98449788  0.08222445    -0.10500
C2645       C  0.65040224  0.97345075  0.07079867    -0.11300
C2646       C  0.65257815  0.97800878  0.05549840     0.20200
C2647       C  0.65238879  0.99366776  0.05167741    -0.13400
C2648       C  0.64993582  0.00471804  0.06310672    -0.11700
C2649       C  0.65455625  0.96659701  0.04368628     0.01100
C2650       C  0.65567737  0.95698015  0.03376954    -0.31700
C2651       C  0.64448744  0.01146649  0.09003381     0.02500
C2652       C  0.64107794  0.02090202  0.09959470    -0.33400
H2653       H  0.64611818  0.98083693  0.09399475     0.13600
H2654       H  0.65045686  0.96136941  0.07386201     0.13400
H2655       H  0.65398847  0.99731290  0.03986850     0.13300
H2656       H  0.64965054  0.01678739  0.06000902     0.12300
C2657       C  0.92624556  0.58000613  0.91963195     0.18600
C2658       C  0.92161723  0.58576935  0.93395744    -0.10500
C2659       C  0.93250468  0.58836840  0.94552791    -0.11300
C2660       C  0.94808195  0.58521876  0.94283275     0.20200
C2661       C  0.95275543  0.57980253  0.92838590    -0.13400
C2662       C  0.94186842  0.57720027  0.91681775    -0.11700
C2663       C  0.95913519  0.58669614  0.95510292     0.01100
C2664       C  0.96842766  0.58704056  0.96541036    -0.31700
C2665       C  0.91489217  0.57607721  0.90820565     0.02500
C2666       C  0.90529431  0.57189830  0.89908868    -0.33400
H2667       H  0.90956788  0.58792192  0.93629310     0.13600
H2668       H  0.92874047  0.59250674  0.95666125     0.13400
H2669       H  0.96475634  0.57727428  0.92617901     0.13300
H2670       H  0.94558492  0.57268296  0.90581609     0.12300
C2671       C  0.92179489  0.57737610  0.07525563     0.18600
C2672       C  0.92071670  0.57020248  0.06087367    -0.10500
C2673       C  0.93203123  0.57270705  0.04973584    -0.11300
C2674       C  0.94450164  0.58240101  0.05290909     0.20200
C2675       C  0.94551585  0.58972778  0.06723716    -0.13400
C2676       C  0.93417764  0.58721554  0.07840045    -0.11700
C2677       C  0.95645210  0.58434674  0.04161068     0.01100
C2678       C  0.96643332  0.58517787  0.03201493    -0.31700
C2679       C  0.91053311  0.57400354  0.08691355     0.02500
C2680       C  0.90120369  0.56999187  0.09635705    -0.33400
H2681       H  0.91124246  0.56250673  0.05834939     0.13600
H2682       H  0.93115949  0.56693511  0.03872669     0.13400
H2683       H  0.95514253  0.59720310  0.06983549     0.13300
H2684       H  0.93517101  0.59275801  0.08951494     0.12300
C2685       C  0.07777915  0.57710406  0.92320153     0.18600
C2686       C  0.08240017  0.57960703  0.93844010    -0.10500
C2687       C  0.07138176  0.58214945  0.94989188    -0.11300
C2688       C  0.05570694  0.58219176  0.94613804     0.20200
C2689       C  0.05110785  0.57982685  0.93088010    -0.13400
C2690       C  0.06211558  0.57728524  0.91943977    -0.11700
C2691       C  0.04428617  0.58408140  0.95796313     0.01100
C2692       C  0.03441029  0.58497324  0.96765064    -0.31700
C2693       C  0.08902722  0.57369648  0.91155151     0.02500
C2694       C  0.09831628  0.57002143  0.90194053    -0.33400
H2695       H  0.09448068  0.57939805  0.94148986     0.13600
H2696       H  0.07506114  0.58388885  0.96166838     0.13400
H2697       H  0.03901573  0.57975857  0.92786770     0.13300
H2698       H  0.05841111  0.57526997  0.90771485     0.12300
C2699       C  0.07520911  0.57497689  0.07869974     0.18600
C2700       C  0.07976300  0.58078869  0.06437121    -0.10500
C2701       C  0.06880359  0.58337512  0.05287378    -0.11300
C2702       C  0.05325637  0.58015398  0.05566876     0.20200
C2703       C  0.04869206  0.57453426  0.07006431    -0.13400
C2704       C  0.05964168  0.57195041  0.08155113    -0.11700
C2705       C  0.04203782  0.58212486  0.04365867     0.01100
C2706       C  0.03252386  0.58323554  0.03363333    -0.31700
C2707       C  0.08653248  0.57143134  0.09023115     0.02500
C2708       C  0.09585668  0.56761570  0.09975012    -0.33400
H2709       H  0.09178164  0.58310195  0.06202244     0.13600
H2710       H  0.07246534  0.58768362  0.04176880     0.13400
H2711       H  0.03671030  0.57196338  0.07233470     0.13300
H2712       H  0.05600526  0.56738750  0.09256355     0.12300
C2713       C  0.42250955  0.34992779  0.84807960     0.18600
C2714       C  0.41852574  0.36554510  0.84861387    -0.10500
C2715       C  0.42983886  0.37685656  0.84672809    -0.11300
C2716       C  0.44520653  0.37261616  0.84430655     0.20200
C2717       C  0.44917067  0.35700135  0.84368803    -0.13400
C2718       C  0.43786048  0.34569300  0.84557399    -0.11700
C2719       C  0.45696300  0.38424524  0.84289866     0.01100
C2720       C  0.46689185  0.39394097  0.84226036    -0.31700
C2721       C  0.41100003  0.33829250  0.85082039     0.02500
C2722       C  0.40153113  0.32869064  0.85414895    -0.33400
H2723       H  0.40672151  0.36897083  0.85066246     0.13600
H2724       H  0.42663436  0.38888570  0.84730994     0.13400
H2725       H  0.46101683  0.35357421  0.84190321     0.13300
H2726       H  0.44111013  0.33366631  0.84525595     0.12300
C2727       C  0.55479095  0.37262370  0.84596077     0.18600
C2728       C  0.57018664  0.37690552  0.84804283    -0.10500
C2729       C  0.58147184  0.36564092  0.85016544    -0.11300
C2730       C  0.57741614  0.35004068  0.85020359     0.20200
C2731       C  0.56205800  0.34574444  0.84785339    -0.13400
C2732       C  0.55076804  0.35701385  0.84572985    -0.11700
C2733       C  0.58886493  0.33852534  0.85344268     0.01100
C2734       C  0.59833469  0.32905106  0.85703471    -0.31700
C2735       C  0.54308162  0.38425150  0.84463413     0.02500
C2736       C  0.53329173  0.39405091  0.84398715    -0.33400
H2737       H  0.57342138  0.38894049  0.84826960     0.13600
H2738       H  0.59329813  0.36909722  0.85203571     0.13400
H2739       H  0.55878096  0.33371926  0.84792429     0.13300
H2740       H  0.53889390  0.35357375  0.84415625     0.12300
C2741       C  0.42273429  0.50378390  0.84737108     0.18600
C2742       C  0.43752453  0.50787155  0.84244871    -0.10500
C2743       C  0.44871353  0.49652080  0.84030261    -0.11300
C2744       C  0.44514726  0.48105200  0.84308338     0.20200
C2745       C  0.43029102  0.47694279  0.84777882    -0.13400
C2746       C  0.41910538  0.48828993  0.84992378    -0.11700
C2747       C  0.45689410  0.46948858  0.84182579     0.01100
C2748       C  0.46680390  0.45981475  0.84150520    -0.31700
C2749       C  0.41157064  0.51551768  0.85069409     0.02500
C2750       C  0.40246458  0.52521204  0.85456932    -0.33400
H2751       H  0.44047650  0.51983104  0.84054902     0.13600
H2752       H  0.46019221  0.49982155  0.83674323     0.13400
H2753       H  0.42744139  0.46501959  0.85003446     0.13300
H2754       H  0.40773326  0.48502048  0.85383813     0.12300
C2755       C  0.57523609  0.50632192  0.85178704     0.18600
C2756       C  0.57905966  0.49331257  0.84306317    -0.10500
C2757       C  0.56816049  0.48168786  0.84066492    -0.11300
C2758       C  0.55338302  0.48300451  0.84698524     0.20200
C2759       C  0.54954802  0.49605255  0.85564297    -0.13400
C2760       C  0.56043717  0.50766632  0.85803881    -0.11700
C2761       C  0.54226317  0.47085074  0.84493131     0.01100
C2762       C  0.53283160  0.46070841  0.84380663    -0.31700
C2763       C  0.58655185  0.51810279  0.85470695     0.02500
C2764       C  0.59581349  0.52793736  0.85793506    -0.33400
H2765       H  0.59047837  0.49210416  0.83822446     0.13600
H2766       H  0.57128654  0.47163818  0.83399538     0.13400
H2767       H  0.53818734  0.49719023  0.86063598     0.13300
H2768       H  0.55735715  0.51763057  0.86485944     0.12300
C2769       C  0.44490376  0.36904256  0.15573511     0.18600
C2770       C  0.44765605  0.35385108  0.16038644    -0.10500
C2771       C  0.43641621  0.34255316  0.15808252    -0.11300
C2772       C  0.42239715  0.34642539  0.15113180     0.20200
C2773       C  0.41958319  0.36165534  0.14669160    -0.13400
C2774       C  0.43080376  0.37293339  0.14899047    -0.11700
C2775       C  0.41116562  0.33472815  0.14783319     0.01100
C2776       C  0.40177595  0.32526187  0.14403804    -0.31700
C2777       C  0.45667292  0.38056685  0.15734547     0.02500
C2778       C  0.46638127  0.39044240  0.15802971    -0.33400
H2779       H  0.45854019  0.35071099  0.16557606     0.13600
H2780       H  0.43873781  0.33079338  0.16149252     0.13400
H2781       H  0.40881597  0.36475851  0.14123904     0.13300
H2782       H  0.42857431  0.38463138  0.14531182     0.12300
C2783       C  0.41911110  0.49899919  0.15253567     0.18600
C2784       C  0.43448285  0.50373156  0.15361157    -0.10500
C2785       C  0.44613501  0.49287920  0.15593821    -0.11300
C2786       C  0.44248306  0.47722847  0.15719546     0.20200
C2787       C  0.42707913  0.47252170  0.15643421    -0.13400
C2788       C  0.41542056  0.48338010  0.15410420    -0.11700
C2789       C  0.45457688  0.46596886  0.15851998     0.01100
C2790       C  0.46473695  0.45652156  0.15894791    -0.31700
C2791       C  0.40728720  0.51005924  0.14898055     0.02500
C2792       C  0.39771619  0.51933187  0.14510096    -0.33400
H2793       H  0.43748494  0.51576311  0.15235375     0.13600
H2794       H  0.45800013  0.49665454  0.15646405     0.13400
H2795       H  0.42411634  0.46044968  0.15734806     0.13300
H2796       H  0.40358677  0.47957189  0.15323073     0.12300
C2797       C  0.57674871  0.34789034  0.15149664     0.18600
C2798       C  0.56114748  0.34391371  0.15076778    -0.10500
C2799       C  0.54984390  0.35515901  0.15288347    -0.11300
C2800       C  0.55407935  0.37044661  0.15573024     0.20200
C2801       C  0.56968297  0.37439437  0.15667690    -0.13400
C2802       C  0.58099668  0.36313904  0.15455779    -0.11700
C2803       C  0.54241726  0.38212583  0.15713501     0.01100
C2804       C  0.53251709  0.39182179  0.15778941    -0.31700
C2805       C  0.58831534  0.33647367  0.14831139     0.02500
C2806       C  0.59764460  0.32688214  0.14465976    -0.33400
H2807       H  0.55772856  0.33217958  0.14832487     0.13600
H2808       H  0.53782011  0.35198093  0.15208098     0.13400
H2809       H  0.57309262  0.38618726  0.15882835     0.13300
H2810       H  0.59302367  0.36636283  0.15506512     0.12300
C2811       C  0.57605404  0.50109424  0.15153075     0.18600
C2812       C  0.57998435  0.48614926  0.15611611    -0.10500
C2813       C  0.56846977  0.47518110  0.15860635    -0.11300
C2814       C  0.55297943  0.47911395  0.15651527     0.20200
C2815       C  0.54903884  0.49412880  0.15218683    -0.13400
C2816       C  0.56054893  0.50509265  0.14969712    -0.11700
C2817       C  0.54119173  0.46759239  0.15809050     0.01100
C2818       C  0.53135159  0.45783651  0.15868668    -0.31700
C2819       C  0.58791118  0.51209222  0.14795586     0.02500
C2820       C  0.59766592  0.52117258  0.14410347    -0.33400
H2821       H  0.59193686  0.48291142  0.15750099     0.13600
H2822       H  0.57165072  0.46358827  0.16189424     0.13400
H2823       H  0.53710388  0.49727871  0.15047945     0.13300
H2824       H  0.55737932  0.51659259  0.14608699     0.12300
C2825       C  0.84449120  0.37141786  0.44416114     0.18600
C2826       C  0.84080053  0.35601270  0.44719706    -0.10500
C2827       C  0.84265245  0.34483915  0.43574686    -0.11300
C2828       C  0.84819041  0.34901566  0.42119237     0.20200
C2829       C  0.85173324  0.36444148  0.41811473    -0.13400
C2830       C  0.84988475  0.37560821  0.42955854    -0.11700
C2831       C  0.85094875  0.33743658  0.40964762     0.01100
C2832       C  0.85429880  0.32793944  0.40009386    -0.31700
C2833       C  0.84314461  0.38283904  0.45611953     0.02500
C2834       C  0.84241458  0.39236452  0.46620100    -0.33400
H2835       H  0.83666401  0.35261914  0.45845115     0.13600
H2836       H  0.83996117  0.33294009  0.43829893     0.13400
H2837       H  0.85611153  0.36779970  0.40694070     0.13300
H2838       H  0.85282165  0.38746442  0.42707731     0.12300
C2839       C  0.85116157  0.34457465  0.57438840     0.18600
C2840       C  0.86079113  0.35748852  0.57386807    -0.10500
C2841       C  0.85793743  0.36927067  0.56330413    -0.11300
C2842       C  0.84543753  0.36821121  0.55319157     0.20200
C2843       C  0.83573255  0.35534592  0.55376839    -0.13400
C2844       C  0.83858988  0.34354526  0.56435130    -0.11700
C2845       C  0.84292527  0.38013547  0.54197091     0.01100
C2846       C  0.84172069  0.39019416  0.53249205    -0.31700
C2847       C  0.85439986  0.33234815  0.58508119     0.02500
C2848       C  0.85787839  0.32242181  0.59412348    -0.33400
H2849       H  0.87055881  0.35839640  0.58155342     0.13600
H2850       H  0.86554651  0.37913698  0.56293118     0.13400
H2851       H  0.82606196  0.35438329  0.54597153     0.13300
H2852       H  0.83108308  0.33360068  0.56463692     0.12300
C2853       C  0.84952336  0.50264797  0.42456826     0.18600
C2854       C  0.84834997  0.50677308  0.44010542    -0.10500
C2855       C  0.84578078  0.49547576  0.45128484    -0.11300
C2856       C  0.84437549  0.48000208  0.44698260     0.20200
C2857       C  0.84539751  0.47590166  0.43142916    -0.13400
C2858       C  0.84796383  0.48719564  0.42025343    -0.11700
C2859       C  0.84246492  0.46828956  0.45855359     0.01100
C2860       C  0.84154405  0.45839733  0.46824540    -0.31700
C2861       C  0.85299339  0.51412505  0.41313092     0.02500
C2862       C  0.85670032  0.52343200  0.40352984    -0.33400
H2863       H  0.84962242  0.51867087  0.44358909     0.13600
H2864       H  0.84508566  0.49877383  0.46328017     0.13400
H2865       H  0.84440559  0.46397003  0.42796947     0.13300
H2866       H  0.84893634  0.48385993  0.40828726     0.12300
C2867       C  0.84846980  0.49880022  0.58039220     0.18600
C2868       C  0.84407326  0.48376047  0.58422787    -0.10500
C2869       C  0.84140333  0.47289835  0.57262253    -0.11300
C2870       C  0.84311505  0.47701851  0.55711989     0.20200
C2871       C  0.84728220  0.49211752  0.55329995    -0.13400
C2872       C  0.84994787  0.50296431  0.56488907    -0.11700
C2873       C  0.84129491  0.46565857  0.54514717     0.01100
C2874       C  0.84059822  0.45624051  0.53495253    -0.31700
C2875       C  0.85217999  0.50978294  0.59227409     0.02500
C2876       C  0.85616739  0.51910819  0.60176957    -0.33400
H2877       H  0.84295294  0.48037243  0.59616646     0.13600
H2878       H  0.83824900  0.46125041  0.57573779     0.13400
H2879       H  0.84870894  0.49543902  0.54137428     0.13300
H2880       H  0.85340359  0.51452601  0.56176703     0.12300
C2881       C  0.44468481  0.77086677  0.44516731     0.18600
C2882       C  0.44859651  0.77329998  0.42972200    -0.10500
C2883       C  0.43708006  0.77591671  0.41879627    -0.11300
C2884       C  0.42159282  0.77610955  0.42325594     0.20200
C2885       C  0.41766470  0.77352967  0.43867295    -0.13400
C2886       C  0.42918553  0.77091090  0.44960320    -0.11700
C2887       C  0.40982585  0.77952183  0.41211358     0.01100
C2888       C  0.40026749  0.78309497  0.40272134    -0.31700
C2889       C  0.45658608  0.76894544  0.45653387     0.02500
C2890       C  0.46660543  0.76805940  0.46609215    -0.33400
H2891       H  0.46054076  0.77336788  0.42616831     0.13600
H2892       H  0.44025620  0.77797338  0.40692284     0.13400
H2893       H  0.40573422  0.77372825  0.44226649     0.13300
H2894       H  0.42602784  0.76911840  0.46152330     0.12300
C2895       C  0.57734557  0.77555851  0.42087463     0.18600
C2896       C  0.57961027  0.78110856  0.43582875    -0.10500
C2897       C  0.56832657  0.77885692  0.44705962    -0.11300
C2898       C  0.55471233  0.77105468  0.44339199     0.20200
C2899       C  0.55251389  0.76533851  0.42848224    -0.13400
C2900       C  0.56381157  0.76759301  0.41723777    -0.11700
C2901       C  0.54284633  0.76939382  0.45481645     0.01100
C2902       C  0.53300036  0.76863682  0.46455276    -0.31700
C2903       C  0.58866444  0.77859092  0.40918739     0.02500
C2904       C  0.59810775  0.78200380  0.39962845    -0.33400
H2905       H  0.59000270  0.78733853  0.43874853     0.13600
H2906       H  0.57012951  0.78336100  0.45853731     0.13400
H2907       H  0.54201177  0.75932362  0.42551158     0.13300
H2908       H  0.56191750  0.76330771  0.40569257     0.12300
C2909       C  0.44630964  0.76906577  0.55332817     0.18600
C2910       C  0.44970559  0.76760935  0.56902092    -0.10500
C2911       C  0.43814509  0.76978384  0.58002188    -0.11300
C2912       C  0.42313579  0.77342071  0.57538475     0.20200
C2913       C  0.41968286  0.77455525  0.55968368    -0.13400
C2914       C  0.43123313  0.77237999  0.54869172    -0.11700
C2915       C  0.41152801  0.77691778  0.58669831     0.01100
C2916       C  0.40206363  0.78084953  0.59606319    -0.31700
C2917       C  0.45835171  0.76784795  0.54199467     0.02500
C2918       C  0.46822765  0.76748597  0.53224425    -0.33400
H2919       H  0.46132268  0.76508446  0.57275257     0.13600
H2920       H  0.44097313  0.76894286  0.59212747     0.13400
H2921       H  0.40814628  0.77742919  0.55595322     0.13300
H2922       H  0.42847305  0.77356945  0.53659888     0.12300
C2923       C  0.57985163  0.77399804  0.57366629     0.18600
C2924       C  0.58376096  0.77367703  0.55802673    -0.10500
C2925       C  0.57230331  0.77179383  0.54686869    -0.11300
C2926       C  0.55687707  0.77022640  0.55129514     0.20200
C2927       C  0.55300315  0.77033745  0.56693915    -0.13400
C2928       C  0.56445356  0.77221920  0.57808996    -0.11700
C2929       C  0.54496972  0.76898142  0.53982388     0.01100
C2930       C  0.53484597  0.76838402  0.53034436    -0.31700
C2931       C  0.59146310  0.77704885  0.58510324     0.02500
C2932       C  0.60091143  0.78067230  0.59460653    -0.33400
H2933       H  0.59561089  0.77513596  0.55445597     0.13600
H2934       H  0.57543963  0.77177236  0.53480933     0.13400
H2935       H  0.54111732  0.76918340  0.57050258     0.13300
H2936       H  0.56127229  0.77254379  0.59013322     0.12300
C2937       C  0.14989836  0.34736158  0.42399967     0.18600
C2938       C  0.15418725  0.34329797  0.43899425    -0.10500
C2939       C  0.15695401  0.35473306  0.44997798    -0.11300
C2940       C  0.15544706  0.37028958  0.44602505     0.20200
C2941       C  0.15125569  0.37435689  0.43100081    -0.13400
C2942       C  0.14848971  0.36292187  0.42001714    -0.11700
C2943       C  0.15762873  0.38202973  0.45751641     0.01100
C2944       C  0.15870311  0.39182167  0.46729031    -0.31700
C2945       C  0.14637248  0.33559768  0.41287458     0.02500
C2946       C  0.14264548  0.32593173  0.40364379    -0.33400
H2947       H  0.15522191  0.33130780  0.44223325     0.13600
H2948       H  0.16009585  0.35144741  0.46157947     0.13400
H2949       H  0.14996241  0.38634114  0.42783195     0.13300
H2950       H  0.14508995  0.36620172  0.40848637     0.12300
C2951       C  0.15601164  0.47936396  0.44594375     0.18600
C2952       C  0.14967636  0.49364660  0.44988128    -0.10500
C2953       C  0.14715351  0.50476466  0.43853489    -0.11300
C2954       C  0.15095992  0.50166841  0.42318560     0.20200
C2955       C  0.15743234  0.48743569  0.41925660    -0.13400
C2956       C  0.15995750  0.47630500  0.43061568    -0.11700
C2957       C  0.14765433  0.51288695  0.41145200     0.01100
C2958       C  0.14402926  0.52224999  0.40187727    -0.31700
C2959       C  0.15788304  0.46769525  0.45754955     0.02500
C2960       C  0.15869577  0.45792954  0.46736857    -0.33400
H2961       H  0.14651277  0.49611122  0.46167927     0.13600
H2962       H  0.14206732  0.51569345  0.44169576     0.13400
H2963       H  0.16034539  0.48488367  0.40741410     0.13300
H2964       H  0.16479563  0.46527314  0.42742673     0.12300
C2965       C  0.15667526  0.37059733  0.55547276     0.18600
C2966       C  0.15520712  0.35505808  0.55145114    -0.10500
C2967       C  0.15316095  0.34391678  0.56288150    -0.11300
C2968       C  0.15258655  0.34825827  0.57839060     0.20200
C2969       C  0.15426355  0.36377373  0.58242969    -0.13400
C2970       C  0.15631046  0.37491783  0.57099671    -0.11700
C2971       C  0.14943106  0.33692496  0.59005096     0.01100
C2972       C  0.14574750  0.32756222  0.59960120    -0.31700
C2973       C  0.15798234  0.38213792  0.54365867     0.02500
C2974       C  0.15853567  0.39182746  0.53374316    -0.33400
H2975       H  0.15541574  0.35159016  0.53948521     0.13600
H2976       H  0.15177848  0.33196872  0.55961701     0.13400
H2977       H  0.15373935  0.36727595  0.59437597     0.13300
H2978       H  0.15737812  0.38690398  0.57423859     0.12300
C2979       C  0.14882833  0.50197988  0.57729378     0.18600
C2980       C  0.13641844  0.49438242  0.57037166    -0.10500
C2981       C  0.13905454  0.48312857  0.55920051    -0.11300
C2982       C  0.15412065  0.47939546  0.55487546     0.20200
C2983       C  0.16655394  0.48699232  0.56178162    -0.13400
C2984       C  0.16391222  0.49827005  0.57297580    -0.11700
C2985       C  0.15669789  0.46777869  0.54335133     0.01100
C2986       C  0.15800078  0.45797597  0.53362178    -0.31700
C2987       C  0.14594443  0.51359314  0.58874386     0.02500
C2988       C  0.14254886  0.52323013  0.59812338    -0.33400
H2989       H  0.12470896  0.49716683  0.57360533     0.13600
H2990       H  0.12935227  0.47734240  0.55393609     0.13400
H2991       H  0.17825150  0.48420522  0.55851845     0.13300
H2992       H  0.17359487  0.50408358  0.57824012     0.12300
C2993       C  0.44539604  0.08053920  0.44415580     0.18600
C2994       C  0.43149855  0.08869040  0.44480196    -0.10500
C2995       C  0.41992005  0.08577457  0.43399524    -0.11300
C2996       C  0.42219637  0.07469279  0.42251394     0.20200
C2997       C  0.43610520  0.06658571  0.42185258    -0.13400
C2998       C  0.44766668  0.06949787  0.43264135    -0.11700
C2999       C  0.41020896  0.07134467  0.41159368     0.01100
C3000       C  0.40043229  0.06777570  0.40243008    -0.31700
C3001       C  0.45718057  0.08310571  0.45551913     0.02500
C3002       C  0.46710385  0.08435164  0.46513931    -0.33400
H3003       H  0.42957949  0.09719497  0.45370276     0.13600
H3004       H  0.40918518  0.09206646  0.43465144     0.13400
H3005       H  0.43796782  0.05794712  0.41306627     0.13300
H3006       H  0.45832481  0.06306570  0.43207590     0.12300
C3007       C  0.42234595  0.07767548  0.57548579     0.18600
C3008       C  0.41797373  0.08366873  0.56117140    -0.10500
C3009       C  0.42906718  0.08638109  0.54981825    -0.11300
C3010       C  0.44457963  0.08311176  0.55274024     0.20200
C3011       C  0.44897302  0.07738348  0.56714843    -0.13400
C3012       C  0.43789046  0.07467011  0.57848844    -0.11700
C3013       C  0.45592577  0.08490940  0.54080185     0.01100
C3014       C  0.46571668  0.08552107  0.53099038    -0.31700
C3015       C  0.41084823  0.07386586  0.58679398     0.02500
C3016       C  0.40130247  0.06985469  0.59603288    -0.33400
H3017       H  0.40598119  0.08597721  0.55869898     0.13600
H3018       H  0.42552564  0.09076039  0.53870342     0.13400
H3019       H  0.46092276  0.07476009  0.56951778     0.13300
H3020       H  0.44140332  0.06997529  0.58948404     0.12300
C3021       C  0.57621204  0.07656082  0.42086082     0.18600
C3022       C  0.56053806  0.07777244  0.41731554    -0.10500
C3023       C  0.54975516  0.08009166  0.42903513    -0.11300
C3024       C  0.55457374  0.08120941  0.44437602     0.20200
C3025       C  0.57028114  0.08028152  0.44790025    -0.13400
C3026       C  0.58107261  0.07796133  0.43617071    -0.11700
C3027       C  0.54333530  0.08272665  0.45648351     0.01100
C3028       C  0.53362703  0.08348717  0.46638576    -0.31700
C3029       C  0.58715136  0.07296201  0.40893380     0.02500
C3030       C  0.59610434  0.06893722  0.39912041    -0.33400
H3031       H  0.55662904  0.07663305  0.40553948     0.13600
H3032       H  0.53764721  0.08075544  0.42616529     0.13400
H3033       H  0.57415186  0.08109430  0.45971522     0.13300
H3034       H  0.59315184  0.07696946  0.43906611     0.12300
C3035       C  0.55211266  0.08013586  0.55548197     0.18600
C3036       C  0.55434819  0.09093773  0.56725745    -0.10500
C3037       C  0.56511834  0.08809298  0.57892748    -0.11300
C3038       C  0.57370483  0.07443033  0.57888454     0.20200
C3039       C  0.57144008  0.06365524  0.56711126    -0.13400
C3040       C  0.56069782  0.06649355  0.55546989    -0.11700
C3041       C  0.58476993  0.07129869  0.59088528     0.01100
C3042       C  0.59408388  0.06779814  0.60060021    -0.31700
C3043       C  0.54094957  0.08283232  0.54347308     0.02500
C3044       C  0.53163772  0.08413071  0.53323167    -0.33400
H3045       H  0.54776264  0.10151374  0.56743386     0.13600
H3046       H  0.56672622  0.09651010  0.58797122     0.13400
H3047       H  0.57796478  0.05303893  0.56694474     0.13300
H3048       H  0.55906367  0.05802881  0.54647205     0.12300
loop_ 
_geom_bond_atom_site_label_1 
_geom_bond_atom_site_label_2 
_geom_bond_distance 
_geom_bond_site_symmetry_2 
_ccdc_geom_bond_type 
O1           Cu9   2.019       .  S
O1           C11   1.278       .  A
O2           Cu9   2.022       .  S
O2           C12   1.278       .  A
O3           Cu9   2.015       .  S
O3           C13   1.277       .  A
O4           Cu9   2.013       .  S
O4           C14   1.277       .  A
O5          Cu10   2.008       .  S
O5           C14   1.276       .  A
O6          Cu10   2.012       .  S
O6           C13   1.277       .  A
O7          Cu10   2.008       .  S
O7           C12   1.276       .  A
O8          Cu10   2.005       .  S
O8           C11   1.276       .  A
Cu9         Cu10   2.379       .  S
C11        C3002   1.436       .  S
C12        C3044   1.440       .  S
C13        C3028   1.438       .  S
C14        C3014   1.436       .  S
O15         Cu23   2.017       .  S
O15          C25   1.277       .  A
O16         Cu23   2.018       .  S
O16          C26   1.278       .  A
O17         Cu23   2.012       .  S
O17          C27   1.277       .  A
O18         Cu23   2.012       .  S
O18          C28   1.277       .  A
O19         Cu24   2.009       .  S
O19          C28   1.276       .  A
O20         Cu24   2.008       .  S
O20          C27   1.276       .  A
O21         Cu24   2.004       .  S
O21          C26   1.276       .  A
O22         Cu24   2.004       .  S
O22          C25   1.276       .  A
Cu23        Cu24   2.380       .  S
C25        C2986   1.436       .  S
C26        C2944   1.436       .  S
C27        C2960   1.435       .  S
C28        C2974   1.435       .  S
O29         Cu37   2.011       .  S
O29          C39   1.277       .  A
O30         Cu37   2.009       .  S
O30          C40   1.276       .  A
O31         Cu37   2.007       .  S
O31          C41   1.276       .  A
O32         Cu37   2.008       .  S
O32          C42   1.276       .  A
O33         Cu38   2.015       .  S
O33          C42   1.277       .  A
O34         Cu38   2.016       .  S
O34          C41   1.277       .  A
O35         Cu38   2.011       .  S
O35          C40   1.276       .  A
O36         Cu38   2.013       .  S
O36          C39   1.277       .  A
Cu37        Cu38   2.379       .  S
C39        C2918   1.437       .  S
C40        C2902   1.435       .  S
C41        C2890   1.436       .  S
C42        C2930   1.437       .  S
O43         Cu51   2.005       .  S
O43          C53   1.276       .  A
O44         Cu51   2.006       .  S
O44          C54   1.276       .  A
O45         Cu51   2.011       .  S
O45          C55   1.277       .  A
O46         Cu51   2.011       .  S
O46          C56   1.277       .  A
O47         Cu52   2.017       .  S
O47          C56   1.277       .  A
O48         Cu52   2.018       .  S
O48          C55   1.277       .  A
O49         Cu52   2.016       .  S
O49          C54   1.277       .  A
O50         Cu52   2.016       .  S
O50          C53   1.277       .  A
Cu51        Cu52   2.379       .  S
C53        C2846   1.435       .  S
C54        C2860   1.436       .  S
C55        C2874   1.439       .  S
C56        C2834   1.438       .  S
O57         Cu65   2.007       .  S
O57          C67   1.276       .  A
O58         Cu65   2.007       .  S
O58          C68   1.276       .  A
O59         Cu65   2.010       .  S
O59          C69   1.277       .  A
O60         Cu65   2.009       .  S
O60          C70   1.276       .  A
O61         Cu66   2.012       .  S
O61          C70   1.277       .  A
O62         Cu66   2.014       .  S
O62          C69   1.277       .  A
O63         Cu66   2.010       .  S
O63          C68   1.276       .  A
O64         Cu66   2.011       .  S
O64          C67   1.276       .  A
Cu65        Cu66   2.380       .  S
C67        C2818   1.434       .  S
C68        C2778   1.434       .  S
C69        C2790   1.437       .  S
C70        C2804   1.436       .  S
O71         Cu79   2.009       .  S
O71          C81   1.276       .  A
O72         Cu79   2.008       .  S
O72          C82   1.276       .  A
O73         Cu79   2.020       .  S
O73          C83   1.278       .  A
O74         Cu79   2.019       .  S
O74          C84   1.278       .  A
O75         Cu80   2.008       .  S
O75          C84   1.276       .  A
O76         Cu80   2.009       .  S
O76          C83   1.276       .  A
O77         Cu80   2.006       .  S
O77          C82   1.276       .  A
O78         Cu80   2.009       .  S
O78          C81   1.277       .  A
Cu79        Cu80   2.379       .  S
C81        C2736   1.435       .  S
C82        C2748   1.433       .  S
C83        C2762   1.438       .  S
C84        C2720   1.438       .  S
O85         Cu93   2.015   1_656  S
O85          C95   1.277       .  A
O86         Cu93   2.012       .  S
O86          C96   1.277       .  A
O87         Cu93   2.012   1_556  S
O87          C97   1.277       .  A
O88         Cu93   2.013   1_655  S
O88          C98   1.277       .  A
O89         Cu94   2.006   1_554  S
O89          C98   1.276       .  A
O90         Cu94   2.005   1_455  S
O90          C97   1.276       .  A
O91         Cu94   2.007   1_454  S
O91          C96   1.276       .  A
O92         Cu94   2.009       .  S
O92          C95   1.276       .  A
Cu93        Cu94   2.380   1_454  S
C95        C2664   1.437       .  S
C96        C2706   1.435       .  S
C97        C2692   1.434       .  S
C98        C2678   1.435       .  S
O99        Cu107   2.013   1_554  S
O99         C109   1.277       .  A
O100       Cu107   2.010       .  S
O100        C110   1.277       .  A
O101       Cu107   2.006       .  S
O101        C111   1.276       .  A
O102       Cu107   2.005   1_554  S
O102        C112   1.276       .  A
O103       Cu108   2.012   1_554  S
O103        C112   1.277       .  A
O104       Cu108   2.013       .  S
O104        C111   1.277       .  A
O105       Cu108   2.013       .  S
O105        C110   1.277       .  A
O106       Cu108   2.016   1_554  S
O106        C109   1.277       .  A
Cu107      Cu108   2.379       .  S
C109       C2636   1.439       .  S
C110       C2622   1.436       .  S
C111       C2608   1.435       .  S
C112       C2650   1.434       .  S
O113       Cu121   2.010       .  S
O113        C123   1.276       .  A
O114       Cu121   2.010   1_454  S
O114        C124   1.277       .  A
O115       Cu121   2.007   1_455  S
O115        C125   1.276       .  A
O116       Cu121   2.005   1_554  S
O116        C126   1.276       .  A
O117       Cu122   2.012   1_554  S
O117        C126   1.277       .  A
O118       Cu122   2.013   1_455  S
O118        C125   1.277       .  A
O119       Cu122   2.016   1_454  S
O119        C124   1.277       .  A
O120       Cu122   2.014       .  S
O120        C123   1.277       .  A
Cu121      Cu122   2.379       .  S
C123       C2552   1.436       .  S
C124       C2596   1.438       .  S
C125       C2566   1.435       .  S
C126       C2580   1.434       .  S
O127       Cu135   2.006       .  S
O127        C137   1.276       .  A
O128       Cu135   2.005   1_554  S
O128        C138   1.276       .  A
O129       Cu135   2.006       .  S
O129        C139   1.276       .  A
O130       Cu135   2.007   1_554  S
O130        C140   1.276       .  A
O131       Cu136   2.010       .  S
O131        C140   1.276       .  A
O132       Cu136   2.010   1_556  S
O132        C139   1.276       .  A
O133       Cu136   2.015       .  S
O133        C138   1.277       .  A
O134       Cu136   2.017   1_556  S
O134        C137   1.277       .  A
Cu135      Cu136   2.380   1_556  S
C137       C2524   1.436       .  S
C138       C2510   1.435       .  S
C139       C2498   1.434       .  S
C140       C2540   1.433       .  S
O141       Cu149   2.016   1_655  S
O141        C151   1.277       .  A
O142       Cu149   2.018       .  S
O142        C152   1.277       .  A
O143       Cu149   2.014       .  S
O143        C153   1.277       .  A
O144       Cu149   2.015   1_655  S
O144        C154   1.277       .  A
O145       Cu150   2.007   1_655  S
O145        C154   1.276       .  A
O146       Cu150   2.005       .  S
O146        C153   1.276       .  A
O147       Cu150   2.009       .  S
O147        C152   1.276       .  A
O148       Cu150   2.007   1_655  S
O148        C151   1.276       .  A
Cu149      Cu150   2.379       .  S
C151       C2454   1.436       .  S
C152       C2468   1.438       .  S
C153       C2482   1.434       .  S
C154       C2440   1.436       .  S
O155       Cu163   2.005   1_655  S
O155        C165   1.276       .  A
O156       Cu163   2.005       .  S
O156        C166   1.276       .  A
O157       Cu163   2.008   1_655  S
O157        C167   1.276       .  A
O158       Cu163   2.009       .  S
O158        C168   1.276       .  A
O159       Cu164   2.017   1_455  S
O159        C168   1.277       .  A
O160       Cu164   2.017       .  S
O160        C167   1.277       .  A
O161       Cu164   2.014   1_455  S
O161        C166   1.277       .  A
O162       Cu164   2.015       .  S
O162        C165   1.277       .  A
Cu163      Cu164   2.379   1_455  S
C165       C2386   1.435       .  S
C166       C2428   1.434       .  S
C167       C2414   1.437       .  S
C168       C2398   1.438       .  S
N169        N170   1.323       .  A
N169        C173   1.344       .  A
N169       Cu177   2.067       .  S
N170        C171   1.346       .  A
N170       Cu176   2.078       .  S
C171        C172   1.380       .  A
C171        H174   1.082       .  S
C172       C2358   1.435       .  S
C172        C173   1.378       .  A
C173        H175   1.082       .  S
Cu176       N179   2.078       .  S
Cu177       N187   2.067       .  S
Cu178       N180   2.074       .  S
Cu178       N186   2.074       .  S
N179        N180   1.323       .  A
N179        C183   1.348       .  A
N180        C181   1.345       .  A
C181        C182   1.379       .  A
C181        H184   1.082       .  S
C182       C2932   1.439       .  S
C182        C183   1.381       .  A
C183        H185   1.082       .  S
N186        N187   1.323       .  A
N186        C190   1.345       .  A
N187        C188   1.345       .  A
C188        C189   1.379       .  A
C188        H191   1.082       .  S
C189       C2370   1.436       .  S
C189        C190   1.380       .  A
C190        H192   1.082       .  S
N193        N194   1.324       .  A
N193        C197   1.345       .  A
N193       Cu201   2.071       .  S
N194        C195   1.347       .  A
N194       Cu200   2.086       .  S
C195        C196   1.381       .  A
C195        H198   1.082       .  S
C196       C2344   1.438       .  S
C196        C197   1.378       .  A
C197        H199   1.082       .  S
Cu200       N203   2.086       .  S
Cu201       N211   2.071       .  S
Cu202       N204   2.074       .  S
Cu202       N210   2.074       .  S
N203        N204   1.323       .  A
N203        C207   1.349       .  A
N204        C205   1.345       .  A
C205        C206   1.379       .  A
C205        H208   1.082       .  S
C206       C3042   1.442       .  S
C206        C207   1.383       .  A
C207        H209   1.082       .  S
N210        N211   1.322       .  A
N210        C214   1.345   1_545  A
N211        C212   1.346   1_545  A
C212        C213   1.380       .  A
C212        H215   1.082       .  S
C213       C2372   1.437       .  S
C213        C214   1.379       .  A
C214        H216   1.082       .  S
N217        N218   1.324       .  A
N217        C221   1.345       .  A
N217       Cu225   2.070       .  S
N218        C219   1.346       .  A
N218       Cu224   2.078       .  S
C219        C220   1.380       .  A
C219        H222   1.082       .  S
C220       C2314   1.436       .  S
C220        C221   1.378       .  A
C221        H223   1.082       .  S
Cu224       N227   2.079       .  S
Cu225       N235   2.070       .  S
Cu226       N228   2.076       .  S
Cu226       N234   2.076       .  S
N227        N228   1.323       .  A
N227        C231   1.347       .  A
N228        C229   1.345       .  A
C229        C230   1.380       .  A
C229        H232   1.082       .  S
C230       C2876   1.440       .  S
C230        C231   1.381       .  A
C231        H233   1.082       .  S
N234        N235   1.323       .  A
N234        C238   1.345       .  A
N235        C236   1.345       .  A
C236        C237   1.379       .  A
C236        H239   1.082       .  S
C237       C2328   1.437       .  S
C237        C238   1.380       .  A
C238        H240   1.082       .  S
N241        N242   1.324       .  A
N241        C245   1.345       .  A
N241       Cu249   2.074       .  S
N242        C243   1.346       .  A
N242       Cu248   2.076       .  S
C243        C244   1.379       .  A
C243        H246   1.082       .  S
C244       C2300   1.437       .  S
C244        C245   1.379       .  A
C245        H247   1.082       .  S
Cu248       N251   2.076       .  S
Cu249       N259   2.074       .  S
Cu250       N252   2.071       .  S
Cu250       N258   2.071       .  S
N251        N252   1.323       .  A
N251        C255   1.347       .  A
N252        C253   1.344       .  A
C253        C254   1.378       .  A
C253        H256   1.082       .  S
C254       C2988   1.437       .  S
C254        C255   1.381       .  A
C255        H257   1.082       .  S
N258        N259   1.323       .  A
N258        C262   1.345       .  A
N259        C260   1.346       .  A
C260        C261   1.380       .  A
C260        H263   1.082       .  S
C261       C2330   1.437       .  S
C261        C262   1.379       .  A
C262        H264   1.082       .  S
N265        N266   1.325       .  A
N265        C269   1.344       .  A
N265       Cu273   2.069       .  S
N266        C267   1.346       .  A
N266       Cu272   2.082       .  S
C267        C268   1.380       .  A
C267        H270   1.082       .  S
C268       C2274   1.435       .  S
C268        C269   1.377       .  A
C269        H271   1.082       .  S
Cu272       N275   2.082       .  S
Cu273       N283   2.068       .  S
Cu274       N276   2.066       .  S
Cu274       N282   2.066       .  S
N275        N276   1.323       .  A
N275        C279   1.348       .  A
N276        C277   1.344       .  A
C277        C278   1.378       .  A
C277        H280   1.082       .  S
C278       C2764   1.439       .  S
C278        C279   1.383       .  A
C279        H281   1.082       .  S
N282        N283   1.322       .  A
N282        C286   1.343       .  A
N283        C284   1.346       .  A
C284        C285   1.380       .  A
C284        H287   1.082       .  S
C285       C2286   1.435       .  S
C285        C286   1.378       .  A
C286        H288   1.082       .  S
N289        N290   1.324       .  A
N289        C293   1.345       .  A
N289       Cu297   2.073       .  S
N290        C291   1.347       .  A
N290       Cu296   2.079       .  S
C291        C292   1.381       .  A
C291        H294   1.082       .  S
C292       C2258   1.438       .  S
C292        C293   1.378       .  A
C293        H295   1.082       .  S
Cu296       N299   2.079       .  S
Cu297       N307   2.073       .  S
Cu298       N300   2.069       .  S
Cu298       N306   2.069       .  S
N299        N300   1.323       .  A
N299        C303   1.347       .  A
N300        C301   1.344       .  A
C301        C302   1.378       .  A
C301        H304   1.082       .  S
C302       C2820   1.437       .  S
C302        C303   1.381       .  A
C303        H305   1.082       .  S
N306        N307   1.322       .  A
N306        C310   1.345       .  A
N307        C308   1.346       .  A
C308        C309   1.380       .  A
C308        H311   1.082       .  S
C309       C2288   1.436       .  S
C309        C310   1.379       .  A
C310        H312   1.082       .  S
N313        N314   1.324       .  A
N313        C317   1.345       .  A
N313       Cu321   2.071       .  S
N314        C315   1.345       .  A
N314       Cu320   2.076       .  S
C315        C316   1.379       .  A
C315        H318   1.082       .  S
C316       C2230   1.435       .  S
C316        C317   1.378       .  A
C317        H319   1.082       .  S
Cu320       N323   2.076       .  S
Cu321       N331   2.071       .  S
Cu322       N324   2.069       .  S
Cu322       N330   2.069       .  S
N323        N324   1.323       .  A
N323        C327   1.347       .  A
N324        C325   1.344       .  A
C325        C326   1.378       .  A
C325        H328   1.082       .  S
C326       C2862   1.437       .  S
C326        C327   1.381       .  A
C327        H329   1.082       .  S
N330        N331   1.323       .  A
N330        C334   1.344       .  A
N331        C332   1.346       .  A
C332        C333   1.380       .  A
C332        H335   1.082       .  S
C333       C2244   1.435       .  S
C333        C334   1.378       .  A
C334        H336   1.082       .  S
N337        N338   1.324       .  A
N337        C341   1.345       .  A
N337       Cu345   2.073       .  S
N338        C339   1.346       .  A
N338       Cu344   2.081       .  S
C339        C340   1.380       .  A
C339        H342   1.082       .  S
C340       C2216   1.438       .  S
C340        C341   1.378       .  A
C341        H343   1.082       .  S
Cu344       N347   2.081       .  S
Cu345       N355   2.072       .  S
Cu346       N348   2.067       .  S
Cu346       N354   2.067       .  S
N347        N348   1.323       .  A
N347        C351   1.348       .  A
N348        C349   1.344       .  A
C349        C350   1.377       .  A
C349        H352   1.082       .  S
C350       C2958   1.437       .  S
C350        C351   1.382       .  A
C351        H353   1.082       .  S
N354        N355   1.322       .  A
N354        C358   1.344       .  A
N355        C356   1.346       .  A
C356        C357   1.380       .  A
C356        H359   1.082       .  S
C357       C2246   1.435       .  S
C357        C358   1.378       .  A
C358        H360   1.082       .  S
N361        N362   1.324       .  A
N361        C365   1.345       .  A
N361       Cu369   2.071       .  S
N362        C363   1.345       .  A
N362       Cu368   2.075       .  S
C363        C364   1.379       .  A
C363        H366   1.082       .  S
C364       C2190   1.435       .  S
C364        C365   1.378       .  A
C365        H367   1.082       .  S
Cu368       N371   2.075       .  S
Cu369       N379   2.070       .  S
Cu370       N372   2.064       .  S
Cu370       N378   2.064       .  S
N371        N372   1.322       .  A
N371        C375   1.347       .  A
N372        C373   1.343       .  A
C373        C374   1.378       .  A
C373        H376   1.082       .  S
C374       C2904   1.436       .  S
C374        C375   1.381       .  A
C375        H377   1.082       .  S
N378        N379   1.322       .  A
N378        C382   1.343       .  A
N379        C380   1.346       .  A
C380        C381   1.380       .  A
C380        H383   1.082       .  S
C381       C2202   1.433       .  S
C381        C382   1.377       .  A
C382        H384   1.082       .  S
N385        N386   1.324       .  A
N385        C389   1.345       .  A
N385       Cu393   2.067       .  S
N386        C387   1.345       .  A
N386       Cu392   2.074       .  S
C387        C388   1.378       .  A
C387        H390   1.082       .  S
C388       C2174   1.433       .  S
C388        C389   1.378       .  A
C389        H391   1.082       .  S
Cu392       N395   2.075       .  S
Cu393       N403   2.067       .  S
Cu394       N396   2.071       .  S
Cu394       N402   2.071       .  S
N395        N396   1.322       .  A
N395        C399   1.347       .  A
N396        C397   1.345       .  A
C397        C398   1.379       .  A
C397        H400   1.082       .  S
C398       C3030   1.438       .  S
C398        C399   1.381       .  A
C399        H401   1.082       .  S
N402        N403   1.323       .  A
N402        C406   1.344   1_545  A
N403        C404   1.345   1_545  A
C404        C405   1.378       .  A
C404        H407   1.082       .  S
C405       C2204   1.433       .  S
C405        C406   1.378       .  A
C406        H408   1.082       .  S
N409        N410   1.324       .  A
N409        C413   1.345       .  A
N409       Cu417   2.075       .  S
N410        C411   1.346       .  A
N410       Cu416   2.078       .  S
C411        C412   1.380       .  A
C411        H414   1.082       .  S
C412       C2146   1.437       .  S
C412        C413   1.378       .  A
C413        H415   1.082       .  S
Cu416       N419   2.078       .  S
Cu417       N427   2.075       .  S
Cu418       N420   2.067       .  S
Cu418       N426   2.067       .  S
N419        N420   1.323       .  A
N419        C423   1.347       .  A
N420        C421   1.344       .  A
C421        C422   1.378       .  A
C421        H424   1.082       .  S
C422       C2848   1.437       .  S
C422        C423   1.381       .  A
C423        H425   1.082       .  S
N426        N427   1.322       .  A
N426        C430   1.344       .  A
N427        C428   1.347       .  A
C428        C429   1.381       .  A
C428        H431   1.082       .  S
C429       C2160   1.436       .  S
C429        C430   1.378       .  A
C430        H432   1.082       .  S
N433        N434   1.324       .  A
N433        C437   1.345       .  A
N433       Cu441   2.071       .  S
N434        C435   1.345       .  A
N434       Cu440   2.075       .  S
C435        C436   1.378       .  A
C435        H438   1.082       .  S
C436       C2132   1.433       .  S
C436        C437   1.377       .  A
C437        H439   1.082       .  S
Cu440       N443   2.075       .  S
Cu441       N451   2.070       .  S
Cu442       N444   2.068       .  S
Cu442       N450   2.068       .  S
N443        N444   1.322       .  A
N443        C447   1.347       .  A
N444        C445   1.343       .  A
C445        C446   1.378       .  A
C445        H448   1.082       .  S
C446       C2972   1.437       .  S
C446        C447   1.381       .  A
C447        H449   1.082       .  S
N450        N451   1.322       .  A
N450        C454   1.344       .  A
N451        C452   1.346       .  A
C452        C453   1.380       .  A
C452        H455   1.082       .  S
C453       C2162   1.435       .  S
C453        C454   1.378       .  A
C454        H456   1.082       .  S
N457        N458   1.324       .  A
N457        C461   1.346       .  A
N457       Cu465   2.075       .  S
N458        C459   1.346       .  A
N458       Cu464   2.079       .  S
C459        C460   1.380       .  A
C459        H462   1.082       .  S
C460       C2104   1.438       .  S
C460        C461   1.379       .  A
C461        H463   1.082       .  S
Cu464       N467   2.079       .  S
Cu465       N475   2.075       .  S
Cu466       N468   2.073       .  S
Cu466       N474   2.073       .  S
N467        N468   1.323       .  A
N467        C471   1.347       .  A
N468        C469   1.345       .  A
C469        C470   1.379       .  A
C469        H472   1.082       .  S
C470       C2916   1.439       .  S
C470        C471   1.381       .  A
C471        H473   1.082       .  S
N474        N475   1.323       .  A
N474        C478   1.345       .  A
N475        C476   1.346       .  A
C476        C477   1.380       .  A
C476        H479   1.082       .  S
C477       C2118   1.437       .  S
C477        C478   1.379       .  A
C478        H480   1.082       .  S
N481        N482   1.324       .  A
N481        C485   1.346       .  A
N481       Cu489   2.078       .  S
N482        C483   1.346       .  A
N482       Cu488   2.076       .  S
C483        C484   1.379       .  A
C483        H486   1.082       .  S
C484       C2090   1.438       .  S
C484        C485   1.380       .  A
C485        H487   1.082       .  S
Cu488       N491   2.076       .  S
Cu489       N499   2.078       .  S
Cu490       N492   2.072       .  S
Cu490       N498   2.072       .  S
N491        N492   1.323       .  A
N491        C495   1.347       .  A
N492        C493   1.345       .  A
C493        C494   1.379       .  A
C493        H496   1.082       .  S
C494       C3016   1.438       .  S
C494        C495   1.381       .  A
C495        H497   1.082       .  S
N498        N499   1.323       .  A
N498        C502   1.345   1_545  A
N499        C500   1.347   1_545  A
C500        C501   1.381       .  A
C500        H503   1.082       .  S
C501       C2120   1.438       .  S
C501        C502   1.379       .  A
C502        H504   1.082       .  S
N505        N506   1.324       .  A
N505        C509   1.345       .  A
N505       Cu513   2.076       .  S
N506        C507   1.346       .  A
N506       Cu512   2.078       .  S
C507        C508   1.380       .  A
C507        H510   1.082       .  S
C508       C2062   1.438       .  S
C508        C509   1.379       .  A
C509        H511   1.082       .  S
Cu512       N515   2.077       .  S
Cu513       N523   2.075       .  S
Cu514       N516   2.069       .  S
Cu514       N522   2.069       .  S
N515        N516   1.323       .  A
N515        C519   1.347       .  A
N516        C517   1.344       .  A
C517        C518   1.378       .  A
C517        H520   1.082       .  S
C518       C2734   1.437       .  S
C518        C519   1.381       .  A
C519        H521   1.082       .  S
N522        N523   1.322       .  A
N522        C526   1.344       .  A
N523        C524   1.347       .  A
C524        C525   1.381       .  A
C524        H527   1.082       .  S
C525       C2076   1.437       .  S
C525        C526   1.379       .  A
C526        H528   1.082       .  S
N529        N530   1.324       .  A
N529        C533   1.344       .  A
N529       Cu537   2.069       .  S
N530        C531   1.345       .  A
N530       Cu536   2.075       .  S
C531        C532   1.379       .  A
C531        H534   1.082       .  S
C532       C2050   1.433       .  S
C532        C533   1.377       .  A
C533        H535   1.082       .  S
Cu536       N539   2.074       .  S
Cu537       N547   2.069       .  S
Cu538       N540   2.071       .  S
Cu538       N546   2.071       .  S
N539        N540   1.323       .  A
N539        C543   1.347       .  A
N540        C541   1.344       .  A
C541        C542   1.378       .  A
C541        H544   1.082       .  S
C542       C2806   1.437       .  S
C542        C543   1.381       .  A
C543        H545   1.082       .  S
N546        N547   1.322       .  A
N546        C550   1.345       .  A
N547        C548   1.346       .  A
C548        C549   1.380       .  A
C548        H551   1.082       .  S
C549       C2078   1.437       .  S
C549        C550   1.379       .  A
C550        H552   1.082       .  S
N553        N554   1.323       .  A
N553        C557   1.345       .  A
N553       Cu561   2.072       .  S
N554        C555   1.346       .  A
N554       Cu560   2.077       .  S
C555        C556   1.380       .  A
C555        H558   1.082       .  S
C556       C2022   1.437       .  S
C556        C557   1.378       .  A
C557        H559   1.082       .  S
Cu560       N563   2.076       .  S
Cu561       N571   2.071       .  S
Cu562       N564   2.068       .  S
Cu562       N570   2.068       .  S
N563        N564   1.323       .  A
N563        C567   1.347       .  A
N564        C565   1.343       .  A
C565        C566   1.377       .  A
C565        H568   1.082       .  S
C566       C2750   1.435       .  S
C566        C567   1.380       .  A
C567        H569   1.082       .  S
N570        N571   1.322       .  A
N570        C574   1.345       .  A
N571        C572   1.345       .  A
C572        C573   1.379       .  A
C572        H575   1.082       .  S
C573       C2036   1.435       .  S
C573        C574   1.379       .  A
C574        H576   1.082       .  S
N577        N578   1.324       .  A
N577        C581   1.345       .  A
N577       Cu585   2.072       .  S
N578        C579   1.347       .  A
N578       Cu584   2.084       .  S
C579        C580   1.382       .  A
C579        H582   1.082       .  S
C580       C2006   1.439       .  S
C580        C581   1.378       .  A
C581        H583   1.082       .  S
Cu584       N587   2.083       .  S
Cu585       N595   2.071       .  S
Cu586       N588   2.069       .  S
Cu586       N594   2.069       .  S
N587        N588   1.323       .  A
N587        C591   1.347       .  A
N588        C589   1.344       .  A
C589        C590   1.378       .  A
C589        H592   1.082       .  S
C590       C2792   1.438       .  S
C590        C591   1.381       .  A
C591        H593   1.082       .  S
N594        N595   1.322       .  A
N594        C598   1.344       .  A
N595        C596   1.346       .  A
C596        C597   1.380       .  A
C596        H599   1.082       .  S
C597       C2034   1.435       .  S
C597        C598   1.379       .  A
C598        H600   1.082       .  S
N601        N602   1.324       .  A
N601        C605   1.344       .  A
N601       Cu609   2.067       .  S
N602        C603   1.346       .  A
N602       Cu608   2.079       .  S
C603        C604   1.380       .  A
C603        H606   1.082       .  S
C604       C1978   1.435       .  S
C604        C605   1.377       .  A
C605        H607   1.082       .  S
Cu608       N611   2.079       .  S
Cu609       N619   2.066       .  S
Cu610       N612   2.065       .  S
Cu610       N618   2.065       .  S
N611        N612   1.323       .  A
N611        C615   1.347       .  A
N612        C613   1.344       .  A
C613        C614   1.377       .  A
C613        H616   1.082       .  S
C614       C2888   1.437       .  S
C614        C615   1.381       .  A
C615        H617   1.082       .  S
N618        N619   1.322       .  A
N618        C622   1.343       .  A
N619        C620   1.345       .  A
C620        C621   1.379       .  A
C620        H623   1.082       .  S
C621       C1992   1.432       .  S
C621        C622   1.377       .  A
C622        H624   1.082       .  S
N625        N626   1.324       .  A
N625        C629   1.344       .  A
N625       Cu633   2.068       .  S
N626        C627   1.346       .  A
N626       Cu632   2.080       .  S
C627        C628   1.380       .  A
C627        H630   1.082       .  S
C628       C1964   1.436       .  S
C628        C629   1.377       .  A
C629        H631   1.082       .  S
Cu632       N635   2.080       .  S
Cu633       N643   2.067       .  S
Cu634       N636   2.064       .  S
Cu634       N642   2.064       .  S
N635        N636   1.323       .  A
N635        C639   1.347       .  A
N636        C637   1.343       .  A
C637        C638   1.377       .  A
C637        H640   1.082       .  S
C638       C3000   1.436       .  S
C638        C639   1.381       .  A
C639        H641   1.082       .  S
N642        N643   1.322       .  A
N642        C646   1.343   1_545  A
N643        C644   1.345   1_545  A
C644        C645   1.379       .  A
C644        H647   1.082       .  S
C645       C1994   1.432       .  S
C645        C646   1.377       .  A
C646        H648   1.082       .  S
N649        N650   1.325       .  A
N649        C653   1.345       .  A
N649       Cu657   2.074       .  S
N650        C651   1.346       .  A
N650       Cu656   2.080       .  S
C651        C652   1.379       .  A
C651        H654   1.082       .  S
C652       C1936   1.436       .  S
C652        C653   1.378       .  A
C653        H655   1.082       .  S
Cu656       N659   2.080       .  S
Cu657       N667   2.073       .  S
Cu658       N660   2.068       .  S
Cu658       N666   2.067       .  S
N659        N660   1.323       .  A
N659        C663   1.348       .  A
N660        C661   1.343       .  A
C661        C662   1.378       .  A
C661        H664   1.082       .  S
C662       C2832   1.438       .  S
C662        C663   1.382       .  A
C663        H665   1.082       .  S
N666        N667   1.322       .  A
N666        C670   1.344       .  A
N667        C668   1.346       .  A
C668        C669   1.381       .  A
C668        H671   1.082       .  S
C669       C1950   1.436       .  S
C669        C670   1.378       .  A
C670        H672   1.082       .  S
N673        N674   1.324       .  A
N673        C677   1.346       .  A
N673       Cu681   2.075       .  S
N674        C675   1.346       .  A
N674       Cu680   2.078       .  S
C675        C676   1.379       .  A
C675        H678   1.082       .  S
C676       C1924   1.437       .  S
C676        C677   1.379       .  A
C677        H679   1.082       .  S
Cu680       N683   2.078       .  S
Cu681       N691   2.074       .  S
Cu682       N684   2.068       .  S
Cu682       N690   2.068       .  S
N683        N684   1.323       .  A
N683        C687   1.347       .  A
N684        C685   1.344       .  A
C685        C686   1.378       .  A
C685        H688   1.082       .  S
C686       C2946   1.438       .  S
C686        C687   1.382       .  A
C687        H689   1.082       .  S
N690        N691   1.323       .  A
N690        C694   1.344       .  A
N691        C692   1.346       .  A
C692        C693   1.380       .  A
C692        H695   1.082       .  S
C693       C1952   1.436       .  S
C693        C694   1.378       .  A
C694        H696   1.082       .  S
N697        N698   1.324       .  A
N697        C701   1.344       .  A
N697       Cu705   2.068       .  S
N698        C699   1.347       .  A
N698       Cu704   2.085       .  S
C699        C700   1.381       .  A
C699        H702   1.082       .  S
C700       C1896   1.437       .  S
C700        C701   1.377       .  A
C701        H703   1.082       .  S
Cu704       N707   2.085       .  S
Cu705       N715   2.067       .  S
Cu706       N708   2.068       .  S
Cu706       N714   2.068       .  S
N707        N708   1.323       .  A
N707        C711   1.349       .  A
N708        C709   1.343       .  A
C709        C710   1.377       .  A
C709        H712   1.082       .  S
C710       C2722   1.439       .  S
C710        C711   1.383       .  A
C711        H713   1.082       .  S
N714        N715   1.322       .  A
N714        C718   1.345       .  A
N715        C716   1.345       .  A
C716        C717   1.379       .  A
C716        H719   1.082       .  S
C717       C1908   1.435       .  S
C717        C718   1.379       .  A
C718        H720   1.082       .  S
N721        N722   1.324       .  A
N721        C725   1.345       .  A
N721       Cu729   2.071       .  S
N722        C723   1.345       .  A
N722       Cu728   2.075       .  S
C723        C724   1.379       .  A
C723        H726   1.082       .  S
C724       C1880   1.435       .  S
C724        C725   1.378       .  A
C725        H727   1.082       .  S
Cu728       N731   2.074       .  S
Cu729       N739   2.071       .  S
Cu730       N732   2.068       .  S
Cu730       N738   2.068       .  S
N731        N732   1.323       .  A
N731        C735   1.347       .  A
N732        C733   1.344       .  A
C733        C734   1.378       .  A
C733        H736   1.082       .  S
C734       C2776   1.436       .  S
C734        C735   1.380       .  A
C735        H737   1.082       .  S
N738        N739   1.322       .  A
N738        C742   1.344       .  A
N739        C740   1.346       .  A
C740        C741   1.380       .  A
C740        H743   1.082       .  S
C741       C1910   1.435       .  S
C741        C742   1.378       .  A
C742        H744   1.082       .  S
N745        N746   1.324       .  A
N745        C749   1.345       .  A
N745       Cu753   2.070       .  S
N746        C747   1.347       .  A
N746       Cu752   2.084       .  S
C747        C748   1.381       .  A
C747        H750   1.082       .  S
C748       C1852   1.438       .  S
C748        C749   1.378       .  A
C749        H751   1.082       .  S
Cu752       N755   2.084       .  S
Cu753       N763   2.069       .  S
Cu754       N756   2.070       .  S
Cu754       N762   2.069       .  S
N755        N756   1.323       .  A
N755        C759   1.348       .  A
N756        C757   1.344       .  A
C757        C758   1.378       .  A
C757        H760   1.082       .  S
C758       C2594   1.440       .  S
C758        C759   1.382       .  A
C759        H761   1.082       .  S
N762        N763   1.322       .  A
N762        C766   1.344       .  A
N763        C764   1.346       .  A
C764        C765   1.379       .  A
C764        H767   1.082       .  S
C765       C1866   1.435       .  S
C765        C766   1.378       .  A
C766        H768   1.082       .  S
N769        N770   1.323       .  A
N769        C773   1.345       .  A
N769       Cu777   2.072       .  S
N770        C771   1.346       .  A
N770       Cu776   2.075       .  S
C771        C772   1.380       .  A
C771        H774   1.082       .  S
C772       C1838   1.436       .  S
C772        C773   1.379       .  A
C773        H775   1.082       .  S
Cu776       N779   2.075       .  S
Cu777       N787   2.072       .  S
Cu778       N780   2.068       .  S
Cu778       N786   2.068       .  S
N779        N780   1.323       .  A
N779        C783   1.346       .  A
N780        C781   1.344       .  A
C781        C782   1.378       .  A
C781        H784   1.082       .  S
C782       C2708   1.436       .  S
C782        C783   1.380       .  A
C783        H785   1.082       .  S
N786        N787   1.323       .  A
N786        C790   1.344       .  A
N787        C788   1.346       .  A
C788        C789   1.379       .  A
C788        H791   1.082       .  S
C789       C1868   1.434       .  S
C789        C790   1.378       .  A
C790        H792   1.082       .  S
N793        N794   1.324       .  A
N793        C797   1.345       .  A
N793       Cu801   2.073       .  S
N794        C795   1.346       .  A
N794       Cu800   2.076       .  S
C795        C796   1.380       .  A
C795        H798   1.082       .  S
C796       C1812   1.437       .  S
C796        C797   1.379       .  A
C797        H799   1.082       .  S
Cu800       N803   2.076       .  S
Cu801       N811   2.072       .  S
Cu802       N804   2.066       .  S
Cu802       N810   2.066       .  S
N803        N804   1.323       .  A
N803        C807   1.346       .  A
N804        C805   1.344       .  A
C805        C806   1.378       .  A
C805        H808   1.082       .  S
C806       C2538   1.435       .  S
C806        C807   1.380       .  A
C807        H809   1.082       .  S
N810        N811   1.323       .  A
N810        C814   1.344       .  A
N811        C812   1.346       .  A
C812        C813   1.379       .  A
C812        H815   1.082       .  S
C813       C1826   1.434       .  S
C813        C814   1.378       .  A
C814        H816   1.082       .  S
N817        N818   1.323       .  A
N817        C821   1.343       .  A
N817       Cu825   2.064       .  S
N818        C819   1.347       .  A
N818       Cu824   2.080       .  S
C819        C820   1.381       .  A
C819        H822   1.082       .  S
C820       C1796   1.436       .  S
C820        C821   1.376       .  A
C821        H823   1.082       .  S
Cu824       N827   2.080       .  S
Cu825       N835   2.064       .  S
Cu826       N828   2.067       .  S
Cu826       N834   2.067       .  S
N827        N828   1.324       .  A
N827        C831   1.347       .  A
N828        C829   1.344       .  A
C829        C830   1.377       .  A
C829        H832   1.082       .  S
C830       C2652   1.435       .  S
C830        C831   1.381       .  A
C831        H833   1.082       .  S
N834        N835   1.322       .  A
N834        C838   1.344       .  A
N835        C836   1.345       .  A
C836        C837   1.378       .  A
C836        H839   1.082       .  S
C837       C1824   1.433       .  S
C837        C838   1.379       .  A
C838        H840   1.082       .  S
N841        N842   1.324       .  A
N841        C845   1.344       .  A
N841       Cu849   2.070       .  S
N842        C843   1.346       .  A
N842       Cu848   2.077       .  S
C843        C844   1.380       .  A
C843        H846   1.082       .  S
C844       C1770   1.435       .  S
C844        C845   1.377       .  A
C845        H847   1.082       .  S
Cu848       N851   2.077       .  S
Cu849       N859   2.070       .  S
Cu850       N852   2.073       .  S
Cu850       N858   2.073       .  S
N851        N852   1.323       .  A
N851        C855   1.347       .  A
N852        C853   1.345       .  A
C853        C854   1.379       .  A
C853        H856   1.082       .  S
C854       C2526   1.438       .  S
C854        C855   1.381       .  A
C855        H857   1.082       .  S
N858        N859   1.322       .  A
N858        C862   1.345       .  A
N859        C860   1.346       .  A
C860        C861   1.380       .  A
C860        H863   1.082       .  S
C861       C1782   1.437       .  S
C861        C862   1.379       .  A
C862        H864   1.082       .  S
N865        N866   1.323       .  A
N865        C869   1.345       .  A
N865       Cu873   2.072       .  S
N866        C867   1.346       .  A
N866       Cu872   2.074       .  S
C867        C868   1.379       .  A
C867        H870   1.082       .  S
C868       C1756   1.435       .  S
C868        C869   1.378       .  A
C869        H871   1.082       .  S
Cu872       N875   2.074       .  S
Cu873       N883   2.072       .  S
Cu874       N876   2.075       .  S
Cu874       N882   2.075       .  S
N875        N876   1.323       .  A
N875        C879   1.346       .  A
N876        C877   1.345       .  A
C877        C878   1.379       .  A
C877        H880   1.082       .  S
C878       C2624   1.437       .  S
C878        C879   1.380       .  A
C879        H881   1.082       .  S
N882        N883   1.323       .  A
N882        C886   1.345       .  A
N883        C884   1.346       .  A
C884        C885   1.379       .  A
C884        H887   1.082       .  S
C885       C1784   1.437       .  S
C885        C886   1.380       .  A
C886        H888   1.082       .  S
N889        N890   1.324       .  A
N889        C893   1.344       .  A
N889       Cu897   2.071       .  S
N890        C891   1.346       .  A
N890       Cu896   2.077       .  S
C891        C892   1.379       .  A
C891        H894   1.082       .  S
C892       C1726   1.435       .  S
C892        C893   1.377       .  A
C893        H895   1.082       .  S
Cu896       N899   2.077       .  S
Cu897       N907   2.071       .  S
Cu898       N900   2.068       .  S
Cu898       N906   2.068       .  S
N899        N900   1.323       .  A
N899        C903   1.347       .  A
N900        C901   1.344       .  A
C901        C902   1.378       .  A
C901        H904   1.082       .  S
C902       C2512   1.437       .  S
C902        C903   1.381       .  A
C903        H905   1.082       .  S
N906        N907   1.322       .  A
N906        C910   1.344       .  A
N907        C908   1.346       .  A
C908        C909   1.380       .  A
C908        H911   1.082       .  S
C909       C1740   1.436       .  S
C909        C910   1.378       .  A
C910        H912   1.082       .  S
N913        N914   1.324       .  A
N913        C917   1.345       .  A
N913       Cu921   2.070       .  S
N914        C915   1.347       .  A
N914       Cu920   2.083       .  S
C915        C916   1.381       .  A
C915        H918   1.082       .  S
C916       C1712   1.437       .  S
C916        C917   1.377       .  A
C917        H919   1.082       .  S
Cu920       N923   2.083       .  S
Cu921       N931   2.069       .  S
Cu922       N924   2.074       .  S
Cu922       N930   2.074       .  S
N923        N924   1.323       .  A
N923        C927   1.348       .  A
N924        C925   1.345       .  A
C925        C926   1.379       .  A
C925        H928   1.082       .  S
C926       C2638   1.440       .  S
C926        C927   1.382       .  A
C927        H929   1.082       .  S
N930        N931   1.322       .  A
N930        C934   1.345       .  A
N931        C932   1.346       .  A
C932        C933   1.380       .  A
C932        H935   1.082       .  S
C933       C1742   1.436       .  S
C933        C934   1.379       .  A
C934        H936   1.082       .  S
N937        N938   1.324       .  A
N937        C941   1.344       .  A
N937       Cu945   2.067       .  S
N938        C939   1.346       .  A
N938       Cu944   2.079       .  S
C939        C940   1.380       .  A
C939        H942   1.082       .  S
C940       C1686   1.434       .  S
C940        C941   1.377       .  A
C941        H943   1.082       .  S
Cu944       N947   2.079       .  S
Cu945       N955   2.066       .  S
Cu946       N948   2.063       .  S
Cu946       N954   2.063       .  S
N947        N948   1.323       .  A
N947        C951   1.348       .  A
N948        C949   1.342       .  A
C949        C950   1.376       .  A
C949        H952   1.082       .  S
C950       C2582   1.435       .  S
C950        C951   1.382       .  A
C951        H953   1.082       .  S
N954        N955   1.321       .  A
N954        C958   1.343       .  A
N955        C956   1.345       .  A
C956        C957   1.379       .  A
C956        H959   1.082       .  S
C957       C1698   1.433       .  S
C957        C958   1.378       .  A
C958        H960   1.082       .  S
N961        N962   1.323       .  A
N961        C965   1.345       .  A
N961       Cu969   2.068       .  S
N962        C963   1.345       .  A
N962       Cu968   2.075       .  S
C963        C964   1.379       .  A
C963        H966   1.082       .  S
C964       C1670   1.435       .  S
C964        C965   1.378       .  A
C965        H967   1.082       .  S
Cu968       N971   2.075       .  S
Cu969       N979   2.067       .  S
Cu970       N972   2.070       .  S
Cu970       N978   2.069       .  S
N971        N972   1.323       .  A
N971        C975   1.347       .  A
N972        C973   1.344       .  A
C973        C974   1.378       .  A
C973        H976   1.082       .  S
C974       C2680   1.436       .  S
C974        C975   1.380       .  A
C975        H977   1.082       .  S
N978        N979   1.323       .  A
N978        C982   1.344       .  A
N979        C980   1.345       .  A
C980        C981   1.378       .  A
C980        H983   1.082       .  S
C981       C1700   1.434       .  S
C981        C982   1.378       .  A
C982        H984   1.082       .  S
N985        N986   1.324       .  A
N985        C989   1.344       .  A
N985       Cu993   2.067       .  S
N986        C987   1.346       .  A
N986       Cu992   2.081       .  S
C987        C988   1.380       .  A
C987        H990   1.082       .  S
C988       C1642   1.435       .  S
C988        C989   1.377       .  A
C989        H991   1.082       .  S
Cu992       N995   2.081       .  S
Cu993      N1003   2.067       .  S
Cu994       N996   2.067       .  S
Cu994      N1002   2.066       .  S
N995        N996   1.323       .  A
N995        C999   1.348       .  A
N996        C997   1.344       .  A
C997        C998   1.378       .  A
C997       H1000   1.082       .  S
C998       C2412   1.439       .  S
C998        C999   1.382       .  A
C999       H1001   1.082       .  S
N1002      N1003   1.322       .  A
N1002      C1006   1.343       .  A
N1003      C1004   1.345       .  A
C1004      C1005   1.379       .  A
C1004      H1007   1.082       .  S
C1005      C1656   1.433       .  S
C1005      C1006   1.378       .  A
C1006      H1008   1.082       .  S
N1009      N1010   1.324       .  A
N1009      C1013   1.345       .  A
N1009     Cu1017   2.067       .  S
N1010      C1011   1.347       .  A
N1010     Cu1016   2.084       .  S
C1011      C1012   1.381       .  A
C1011      H1014   1.082       .  S
C1012      C1628   1.437       .  S
C1012      C1013   1.377       .  A
C1013      H1015   1.082       .  S
Cu1016     N1019   2.084       .  S
Cu1017     N1027   2.067       .  S
Cu1018     N1020   2.066       .  S
Cu1018     N1026   2.065       .  S
N1019      N1020   1.323       .  A
N1019      C1023   1.348       .  A
N1020      C1021   1.344       .  A
C1021      C1022   1.377       .  A
C1021      H1024   1.082       .  S
C1022      C2456   1.438       .  S
C1022      C1023   1.382       .  A
C1023      H1025   1.082       .  S
N1026      N1027   1.322       .  A
N1026      C1030   1.344       .  A
N1027      C1028   1.345       .  A
C1028      C1029   1.378       .  A
C1028      H1031   1.082       .  S
C1029      C1658   1.432       .  S
C1029      C1030   1.378       .  A
C1030      H1032   1.082       .  S
N1033      N1034   1.324       .  A
N1033      C1037   1.346       .  A
N1033     Cu1041   2.074       .  S
N1034      C1035   1.346       .  A
N1034     Cu1040   2.080       .  S
C1035      C1036   1.380       .  A
C1035      H1038   1.082       .  S
C1036      C1600   1.437       .  S
C1036      C1037   1.379       .  A
C1037      H1039   1.082       .  S
Cu1040     N1043   2.080       .  S
Cu1041     N1051   2.074       .  S
Cu1042     N1044   2.072       .  S
Cu1042     N1050   2.072       .  S
N1043      N1044   1.323       .  A
N1043      C1047   1.348       .  A
N1044      C1045   1.344       .  A
C1045      C1046   1.378       .  A
C1045      H1048   1.082       .  S
C1046      C2400   1.439       .  S
C1046      C1047   1.382       .  A
C1047      H1049   1.082       .  S
N1050      N1051   1.322       .  A
N1050      C1054   1.345       .  A
N1051      C1052   1.346       .  A
C1052      C1053   1.380       .  A
C1052      H1055   1.082       .  S
C1053      C1614   1.438       .  S
C1053      C1054   1.380       .  A
C1054      H1056   1.082       .  S
N1057      N1058   1.324       .  A
N1057      C1061   1.346       .  A
N1057     Cu1065   2.075       .  S
N1058      C1059   1.347       .  A
N1058     Cu1064   2.080       .  S
C1059      C1060   1.381       .  A
C1059      H1062   1.082       .  S
C1060      C1586   1.439       .  S
C1060      C1061   1.379       .  A
C1061      H1063   1.082       .  S
Cu1064     N1067   2.079       .  S
Cu1065     N1075   2.075       .  S
Cu1066     N1068   2.077       .  S
Cu1066     N1074   2.077       .  S
N1067      N1068   1.324       .  A
N1067      C1071   1.347       .  A
N1068      C1069   1.346       .  A
C1069      C1070   1.380       .  A
C1069      H1072   1.082       .  S
C1070      C2470   1.440       .  S
C1070      C1071   1.381       .  A
C1071      H1073   1.082       .  S
N1074      N1075   1.323       .  A
N1074      C1078   1.345       .  A
N1075      C1076   1.347       .  A
C1076      C1077   1.380       .  A
C1076      H1079   1.082       .  S
C1077      C1616   1.438       .  S
C1077      C1078   1.380       .  A
C1078      H1080   1.082       .  S
N1081      N1082   1.324       .  A
N1081      C1085   1.345       .  A
N1081     Cu1089   2.074       .  S
N1082      C1083   1.346       .  A
N1082     Cu1088   2.079       .  S
C1083      C1084   1.380       .  A
C1083      H1086   1.082       .  S
C1084      C1558   1.437       .  S
C1084      C1085   1.378       .  A
C1085      H1087   1.082       .  S
Cu1088     N1091   2.079       .  S
Cu1089     N1099   2.074       .  S
Cu1090     N1092   2.069       .  S
Cu1090     N1098   2.069       .  S
N1091      N1092   1.323       .  A
N1091      C1095   1.347       .  A
N1092      C1093   1.344       .  A
C1093      C1094   1.378       .  A
C1093      H1096   1.082       .  S
C1094      C2554   1.437       .  S
C1094      C1095   1.381       .  A
C1095      H1097   1.082       .  S
N1098      N1099   1.322       .  A
N1098      C1102   1.344       .  A
N1099      C1100   1.347       .  A
C1100      C1101   1.381       .  A
C1100      H1103   1.082       .  S
C1101      C1572   1.437       .  S
C1101      C1102   1.378       .  A
C1102      H1104   1.082       .  S
N1105      N1106   1.324       .  A
N1105      C1109   1.345       .  A
N1105     Cu1113   2.075       .  S
N1106      C1107   1.346       .  A
N1106     Cu1112   2.076       .  S
C1107      C1108   1.379       .  A
C1107      H1110   1.082       .  S
C1108      C1544   1.436       .  S
C1108      C1109   1.379       .  A
C1109      H1111   1.082       .  S
Cu1112     N1115   2.076       .  S
Cu1113     N1123   2.075       .  S
Cu1114     N1116   2.074       .  S
Cu1114     N1122   2.073       .  S
N1115      N1116   1.323       .  A
N1115      C1119   1.347       .  A
N1116      C1117   1.345       .  A
C1117      C1118   1.379       .  A
C1117      H1120   1.082       .  S
C1118      C2666   1.439       .  S
C1118      C1119   1.381       .  A
C1119      H1121   1.082       .  S
N1122      N1123   1.323       .  A
N1122      C1126   1.345       .  A
N1123      C1124   1.347       .  A
C1124      C1125   1.381       .  A
C1124      H1127   1.082       .  S
C1125      C1574   1.438       .  S
C1125      C1126   1.379       .  A
C1126      H1128   1.082       .  S
N1129      N1130   1.324       .  A
N1129      C1133   1.346       .  A
N1129     Cu1137   2.076       .  S
N1130      C1131   1.347       .  A
N1130     Cu1136   2.082       .  S
C1131      C1132   1.381       .  A
C1131      H1134   1.082       .  S
C1132      C1516   1.439       .  S
C1132      C1133   1.379       .  A
C1133      H1135   1.082       .  S
Cu1136     N1139   2.082       .  S
Cu1137     N1147   2.075       .  S
Cu1138     N1140   2.071       .  S
Cu1138     N1146   2.070       .  S
N1139      N1140   1.324       .  A
N1139      C1143   1.348       .  A
N1140      C1141   1.344       .  A
C1141      C1142   1.378       .  A
C1141      H1144   1.082       .  S
C1142      C2384   1.438       .  S
C1142      C1143   1.382       .  A
C1143      H1145   1.082       .  S
N1146      N1147   1.322       .  A
N1146      C1150   1.345       .  A
N1147      C1148   1.347       .  A
C1148      C1149   1.381       .  A
C1148      H1151   1.082       .  S
C1149      C1530   1.438       .  S
C1149      C1150   1.379       .  A
C1150      H1152   1.082       .  S
N1153      N1154   1.323       .  A
N1153      C1157   1.346       .  A
N1153     Cu1161   2.075       .  S
N1154      C1155   1.347       .  A
N1154     Cu1160   2.081       .  S
C1155      C1156   1.381       .  A
C1155      H1158   1.082       .  S
C1156      C1502   1.440       .  S
C1156      C1157   1.380       .  A
C1157      H1159   1.082       .  S
Cu1160     N1163   2.081       .  S
Cu1161     N1171   2.075       .  S
Cu1162     N1164   2.075       .  S
Cu1162     N1170   2.075       .  S
N1163      N1164   1.324       .  A
N1163      C1167   1.347       .  A
N1164      C1165   1.345       .  A
C1165      C1166   1.379       .  A
C1165      H1168   1.082       .  S
C1166      C2442   1.439       .  S
C1166      C1167   1.381       .  A
C1167      H1169   1.082       .  S
N1170      N1171   1.323       .  A
N1170      C1174   1.346       .  A
N1171      C1172   1.346       .  A
C1172      C1173   1.380       .  A
C1172      H1175   1.082       .  S
C1173      C1532   1.438       .  S
C1173      C1174   1.380       .  A
C1174      H1176   1.082       .  S
N1177      N1178   1.324       .  A
N1177      C1181   1.346       .  A
N1177     Cu1185   2.077       .  S
N1178      C1179   1.346       .  A
N1178     Cu1184   2.075       .  S
C1179      C1180   1.379       .  A
C1179      H1182   1.082       .  S
C1180      C1474   1.437       .  S
C1180      C1181   1.379       .  A
C1181      H1183   1.082       .  S
Cu1184     N1187   2.074       .  S
Cu1185     N1195   2.077       .  S
Cu1186     N1188   2.072       .  S
Cu1186     N1194   2.072       .  S
N1187      N1188   1.323       .  A
N1187      C1191   1.346       .  A
N1188      C1189   1.345       .  A
C1189      C1190   1.379       .  A
C1189      H1192   1.082       .  S
C1190      C2496   1.436       .  S
C1190      C1191   1.380       .  A
C1191      H1193   1.082       .  S
N1194      N1195   1.323       .  A
N1194      C1198   1.345       .  A
N1195      C1196   1.347       .  A
C1196      C1197   1.381       .  A
C1196      H1199   1.082       .  S
C1197      C1488   1.438       .  S
C1197      C1198   1.379       .  A
C1198      H1200   1.082       .  S
N1201      N1202   1.324       .  A
N1201      C1205   1.345       .  A
N1201     Cu1209   2.070       .  S
N1202      C1203   1.345       .  A
N1202     Cu1208   2.074       .  S
C1203      C1204   1.379       .  A
C1203      H1206   1.082       .  S
C1204      C1460   1.435       .  S
C1204      C1205   1.378       .  A
C1205      H1207   1.082       .  S
Cu1208     N1211   2.074       .  S
Cu1209     N1219   2.070       .  S
Cu1210     N1212   2.073       .  S
Cu1210     N1218   2.073       .  S
N1211      N1212   1.323       .  A
N1211      C1215   1.347       .  A
N1212      C1213   1.344       .  A
C1213      C1214   1.379       .  A
C1213      H1216   1.082       .  S
C1214      C2610   1.437       .  S
C1214      C1215   1.380       .  A
C1215      H1217   1.082       .  S
N1218      N1219   1.323       .  A
N1218      C1222   1.345       .  A
N1219      C1220   1.346       .  A
C1220      C1221   1.380       .  A
C1220      H1223   1.082       .  S
C1221      C1490   1.437       .  S
C1221      C1222   1.379       .  A
C1222      H1224   1.082       .  S
C1225      C2020   1.451       .  S
C1225      C1226   1.410       .  A
C1225      C1230   1.410       .  A
C1226      C1448   1.450       .  S
C1226      C1227   1.409       .  A
C1227      C2302   1.450       .  S
C1227      C1228   1.410       .  A
C1228      C1588   1.452       .  S
C1228      C1229   1.411       .  A
C1229      C2106   1.450       .  S
C1229      C1230   1.411       .  A
C1230      C1476   1.451       .  S
C1231      C2356   1.447       .  S
C1231      C1232   1.410       .  A
C1231      C1236   1.410       .  A
C1232      C1504   1.452       .  S
C1232      C1233   1.409       .  A
C1233      C2316   1.448       .  S
C1233      C1234   1.409       .  A
C1234      C1546   1.449       .  S
C1234      C1235   1.408       .  A
C1235      C2272   1.449       .  S
C1235      C1236   1.409       .  A
C1236      C1462   1.450       .  S
C1237      C1714   1.450       .  S
C1237      C1238   1.410       .  A
C1237      C1242   1.410       .  A
C1238      C2260   1.451       .  S
C1238      C1239   1.410       .  A
C1239      C1672   1.449       .  S
C1239      C1240   1.409       .  A
C1240      C2232   1.449       .  S
C1240      C1241   1.409       .  A
C1241      C1518   1.452       .  S
C1241      C1242   1.410       .  A
C1242      C2188   1.449       .  S
C1243      C1630   1.451       .  S
C1243      C1244   1.409       .  A
C1243      C1248   1.409       .  A
C1244      C2342   1.450       .  S
C1244      C1245   1.410       .  A
C1245      C1754   1.449       .  S
C1245      C1246   1.410       .  A
C1246      C2064   1.452       .  S
C1246      C1247   1.410       .  A
C1247      C1560   1.450       .  S
C1247      C1248   1.410       .  A
C1248      C2148   1.449       .  S
N1249      N1250   1.324       .  A
N1249      C1253   1.345       .  A
N1249     Cu1257   2.074       .  S
N1250      C1251   1.346       .  A
N1250     Cu1256   2.079       .  S
C1251      C1252   1.380       .  A
C1251      H1254   1.082       .  S
C1252      C1418   1.438       .  S
C1252      C1253   1.379       .  A
C1253      H1255   1.082       .  S
Cu1256     N1259   2.078       .  S
Cu1257     N1267   2.074       .  S
Cu1258     N1260   2.071       .  S
Cu1258     N1266   2.071       .  S
N1259      N1260   1.323       .  A
N1259      C1263   1.347       .  A
N1260      C1261   1.344       .  A
C1261      C1262   1.378       .  A
C1261      H1264   1.082       .  S
C1262      C2568   1.437       .  S
C1262      C1263   1.381       .  A
C1263      H1265   1.082       .  S
N1266      N1267   1.323       .  A
N1266      C1270   1.344       .  A
N1267      C1268   1.347       .  A
C1268      C1269   1.380       .  A
C1268      H1271   1.082       .  S
C1269      C1432   1.437       .  S
C1269      C1270   1.379       .  A
C1270      H1272   1.082       .  S
N1273      N1274   1.324       .  A
N1273      C1277   1.345       .  A
N1273     Cu1281   2.076       .  S
N1274      C1275   1.346       .  A
N1274     Cu1280   2.076       .  S
C1275      C1276   1.380       .  A
C1275      H1278   1.082       .  S
C1276      C1446   1.437       .  S
C1276      C1277   1.379       .  A
C1277      H1279   1.082       .  S
Cu1280     N1283   2.076       .  S
Cu1281     N1291   2.075       .  S
Cu1282     N1284   2.069       .  S
Cu1282     N1290   2.069       .  S
N1283      N1284   1.323       .  A
N1283      C1287   1.347       .  A
N1284      C1285   1.344       .  A
C1285      C1286   1.378       .  A
C1285      H1288   1.082       .  S
C1286      C2694   1.436       .  S
C1286      C1287   1.381       .  A
C1287      H1289   1.082       .  S
N1290      N1291   1.322       .  A
N1290      C1294   1.344       .  A
N1291      C1292   1.347       .  A
C1292      C1293   1.381       .  A
C1292      H1295   1.082       .  S
C1293      C1434   1.437       .  S
C1293      C1294   1.379       .  A
C1294      H1296   1.082       .  S
C1297      C2134   1.446       .  S
C1297      C1298   1.409       .  A
C1297      C1302   1.409       .  A
C1298      C1420   1.451       .  S
C1298      C1299   1.409       .  A
C1299      C1894   1.450       .  S
C1299      C1300   1.410       .  A
C1300      C1768   1.447       .  S
C1300      C1301   1.409       .  A
C1301      C2092   1.451       .  S
C1301      C1302   1.408       .  A
C1302      C1404   1.449       .  S
C1303      C2008   1.453       .  S
C1303      C1304   1.411       .  A
C1303      C1308   1.410       .  A
C1304      C1840   1.450       .  S
C1304      C1305   1.411       .  A
C1305      C2218   1.450       .  S
C1305      C1306   1.410       .  A
C1306      C1602   1.451       .  S
C1306      C1307   1.409       .  A
C1307      C1980   1.450       .  S
C1307      C1308   1.409       .  A
C1308      C1728   1.448       .  S
C1309      C1644   1.449       .  S
C1309      C1310   1.409       .  A
C1309      C1314   1.408       .  A
C1310      C2176   1.447       .  S
C1310      C1311   1.409       .  A
C1311      C1798   1.450       .  S
C1311      C1312   1.409       .  A
C1312      C2048   1.447       .  S
C1312      C1313   1.408       .  A
C1313      C1684   1.448       .  S
C1313      C1314   1.408       .  A
C1314      C1938   1.449       .  S
N1315      N1316   1.323       .  A
N1315      C1319   1.345       .  A
N1315     Cu1323   2.070       .  S
N1316      C1317   1.345       .  A
N1316     Cu1322   2.074       .  S
C1317      C1318   1.379       .  A
C1317      H1320   1.082       .  S
C1318      C1378   1.435       .  S
C1318      C1319   1.378       .  A
C1319      H1321   1.082       .  S
Cu1322     N1325   2.074       .  S
Cu1323     N1333   2.069       .  S
Cu1324     N1326   2.066       .  S
Cu1324     N1332   2.066       .  S
N1325      N1326   1.323       .  A
N1325      C1329   1.346       .  A
N1326      C1327   1.344       .  A
C1327      C1328   1.377       .  A
C1327      H1330   1.082       .  S
C1328      C2426   1.435       .  S
C1328      C1329   1.380       .  A
C1329      H1331   1.082       .  S
N1332      N1333   1.322       .  A
N1332      C1336   1.344       .  A
N1333      C1334   1.345       .  A
C1334      C1335   1.379       .  A
C1334      H1337   1.082       .  S
C1335      C1390   1.434       .  S
C1335      C1336   1.378       .  A
C1336      H1338   1.082       .  S
N1339      N1340   1.324       .  A
N1339      C1343   1.345       .  A
N1339     Cu1347   2.071       .  S
N1340      C1341   1.345       .  A
N1340     Cu1346   2.075       .  S
C1341      C1342   1.379       .  A
C1341      H1344   1.082       .  S
C1342      C1406   1.435       .  S
C1342      C1343   1.378       .  A
C1343      H1345   1.082       .  S
Cu1346     N1349   2.074       .  S
Cu1347     N1357   2.070       .  S
Cu1348     N1350   2.065       .  S
Cu1348     N1356   2.065       .  S
N1349      N1350   1.323       .  A
N1349      C1353   1.347       .  A
N1350      C1351   1.343       .  A
C1351      C1352   1.377       .  A
C1351      H1354   1.082       .  S
C1352      C2484   1.435       .  S
C1352      C1353   1.380       .  A
C1353      H1355   1.082       .  S
N1356      N1357   1.322       .  A
N1356      C1360   1.344       .  A
N1357      C1358   1.345       .  A
C1358      C1359   1.379       .  A
C1358      H1361   1.082       .  S
C1359      C1392   1.434       .  S
C1359      C1360   1.378       .  A
C1360      H1362   1.082       .  S
C1363      C1966   1.450       .  S
C1363      C1364   1.410       .  A
C1363      C1368   1.409       .  A
C1364      C1376   1.448       .  S
C1364      C1365   1.409       .  A
C1365      C1922   1.450       .  S
C1365      C1366   1.409       .  A
C1366      C1854   1.451       .  S
C1366      C1367   1.410       .  A
C1367      C1882   1.448       .  S
C1367      C1368   1.410       .  A
C1368      C1810   1.451       .  S
C1369      C1377   1.438       .  S
C1369      C1370   1.401       .  A
C1369      C1374   1.401       .  A
C1370      C1371   1.398       .  A
C1370      H1379   1.083       .  S
C1371      C1372   1.401       .  A
C1371      H1380   1.083       .  S
C1372      C1375   1.437       .  S
C1372      C1373   1.401       .  A
C1373      C1374   1.398       .  A
C1373      H1381   1.083       .  S
C1374      H1382   1.083       .  S
C1375      C1376   1.204       .  T
C1377      C1378   1.205       .  T
C1383      C1391   1.437       .  S
C1383      C1384   1.401       .  A
C1383      C1388   1.401       .  A
C1384      C1385   1.398       .  A
C1384      H1393   1.083       .  S
C1385      C1386   1.401       .  A
C1385      H1394   1.084       .  S
C1386      C1389   1.437       .  S
C1386      C1387   1.401       .  A
C1387      C1388   1.398       .  A
C1387      H1395   1.083       .  S
C1388      H1396   1.083       .  S
C1389      C1390   1.204       .  T
C1391      C1392   1.204       .  T
C1397      C1405   1.438       .  S
C1397      C1398   1.401       .  A
C1397      C1402   1.401       .  A
C1398      C1399   1.398       .  A
C1398      H1407   1.083       .  S
C1399      C1400   1.401       .  A
C1399      H1408   1.083       .  S
C1400      C1403   1.437       .  S
C1400      C1401   1.401       .  A
C1401      C1402   1.399       .  A
C1401      H1409   1.083       .  S
C1402      H1410   1.083       .  S
C1403      C1404   1.205       .  T
C1405      C1406   1.205       .  T
C1411      C1419   1.439       .  S
C1411      C1412   1.402       .  A
C1411      C1416   1.401       .  A
C1412      C1413   1.400       .  A
C1412      H1421   1.083       .  S
C1413      C1414   1.402       .  A
C1413      H1422   1.083       .  S
C1414      C1417   1.441       .  S
C1414      C1415   1.401       .  A
C1415      C1416   1.398       .  A
C1415      H1423   1.083       .  S
C1416      H1424   1.083       .  S
C1417      C1418   1.206       .  T
C1419      C1420   1.206       .  T
C1425      C1433   1.440       .  S
C1425      C1426   1.402       .  A
C1425      C1430   1.401       .  A
C1426      C1427   1.400       .  A
C1426      H1435   1.083       .  S
C1427      C1428   1.402       .  A
C1427      H1436   1.083       .  S
C1428      C1431   1.440       .  S
C1428      C1429   1.401       .  A
C1429      C1430   1.398       .  A
C1429      H1437   1.084       .  S
C1430      H1438   1.084       .  S
C1431      C1432   1.206       .  T
C1433      C1434   1.206       .  T
C1439      C1447   1.438       .  S
C1439      C1440   1.401       .  A
C1439      C1444   1.401       .  A
C1440      C1441   1.398       .  A
C1440      H1449   1.084       .  S
C1441      C1442   1.401       .  A
C1441      H1450   1.083       .  S
C1442      C1445   1.440       .  S
C1442      C1443   1.402       .  A
C1443      C1444   1.399       .  A
C1443      H1451   1.083       .  S
C1444      H1452   1.083       .  S
C1445      C1446   1.206       .  T
C1447      C1448   1.205       .  T
C1453      C1461   1.437       .  S
C1453      C1454   1.401       .  A
C1453      C1458   1.401       .  A
C1454      C1455   1.398       .  A
C1454      H1463   1.084       .  S
C1455      C1456   1.401       .  A
C1455      H1464   1.084       .  S
C1456      C1459   1.438       .  S
C1456      C1457   1.401       .  A
C1457      C1458   1.398       .  A
C1457      H1465   1.083       .  S
C1458      H1466   1.083       .  S
C1459      C1460   1.205       .  T
C1461      C1462   1.205       .  T
C1467      C1475   1.439       .  S
C1467      C1468   1.401       .  A
C1467      C1472   1.401       .  A
C1468      C1469   1.399       .  A
C1468      H1477   1.084       .  S
C1469      C1470   1.401       .  A
C1469      H1478   1.083       .  S
C1470      C1473   1.440       .  S
C1470      C1471   1.402       .  A
C1471      C1472   1.400       .  A
C1471      H1479   1.083       .  S
C1472      H1480   1.083       .  S
C1473      C1474   1.206       .  T
C1475      C1476   1.206       .  T
C1481      C1489   1.440       .  S
C1481      C1482   1.402       .  A
C1481      C1486   1.401       .  A
C1482      C1483   1.400       .  A
C1482      H1491   1.083       .  S
C1483      C1484   1.402       .  A
C1483      H1492   1.083       .  S
C1484      C1487   1.441       .  S
C1484      C1485   1.401       .  A
C1485      C1486   1.399       .  A
C1485      H1493   1.083       .  S
C1486      H1494   1.083       .  S
C1487      C1488   1.206       .  T
C1489      C1490   1.206       .  T
C1495      C1503   1.441       .  S
C1495      C1496   1.402       .  A
C1495      C1500   1.401       .  A
C1496      C1497   1.400       .  A
C1496      H1505   1.084       .  S
C1497      C1498   1.402       .  A
C1497      H1506   1.083       .  S
C1498      C1501   1.443       .  S
C1498      C1499   1.402       .  A
C1499      C1500   1.400       .  A
C1499      H1507   1.083       .  S
C1500      H1508   1.083       .  S
C1501      C1502   1.208       .  T
C1503      C1504   1.207       .  T
C1509      C1517   1.441       .  S
C1509      C1510   1.401       .  A
C1509      C1514   1.402       .  A
C1510      C1511   1.399       .  A
C1510      H1519   1.083       .  S
C1511      C1512   1.401       .  A
C1511      H1520   1.083       .  S
C1512      C1515   1.442       .  S
C1512      C1513   1.402       .  A
C1513      C1514   1.400       .  A
C1513      H1521   1.083       .  S
C1514      H1522   1.084       .  S
C1515      C1516   1.207       .  T
C1517      C1518   1.207       .  T
C1523      C1531   1.441       .  S
C1523      C1524   1.401       .  A
C1523      C1528   1.402       .  A
C1524      C1525   1.399       .  A
C1524      H1533   1.083       .  S
C1525      C1526   1.401       .  A
C1525      H1534   1.083       .  S
C1526      C1529   1.441       .  S
C1526      C1527   1.402       .  A
C1527      C1528   1.401       .  A
C1527      H1535   1.083       .  S
C1528      H1536   1.083       .  S
C1529      C1530   1.207       .  T
C1531      C1532   1.207       .  T
C1537      C1545   1.437       .  S
C1537      C1538   1.401       .  A
C1537      C1542   1.401       .  A
C1538      C1539   1.398       .  A
C1538      H1547   1.084       .  S
C1539      C1540   1.401       .  A
C1539      H1548   1.083       .  S
C1540      C1543   1.439       .  S
C1540      C1541   1.402       .  A
C1541      C1542   1.399       .  A
C1541      H1549   1.083       .  S
C1542      H1550   1.083       .  S
C1543      C1544   1.205       .  T
C1545      C1546   1.204       .  T
C1551      C1559   1.438       .  S
C1551      C1552   1.401       .  A
C1551      C1556   1.401       .  A
C1552      C1553   1.400       .  A
C1552      H1561   1.084       .  S
C1553      C1554   1.402       .  A
C1553      H1562   1.083       .  S
C1554      C1557   1.440       .  S
C1554      C1555   1.401       .  A
C1555      C1556   1.398       .  A
C1555      H1563   1.083       .  S
C1556      H1564   1.084       .  S
C1557      C1558   1.206       .  T
C1559      C1560   1.205       .  T
C1565      C1573   1.441       .  S
C1565      C1566   1.402       .  A
C1565      C1570   1.401       .  A
C1566      C1567   1.400       .  A
C1566      H1575   1.083       .  S
C1567      C1568   1.402       .  A
C1567      H1576   1.083       .  S
C1568      C1571   1.440       .  S
C1568      C1569   1.401       .  A
C1569      C1570   1.399       .  A
C1569      H1577   1.083       .  S
C1570      H1578   1.083       .  S
C1571      C1572   1.206       .  T
C1573      C1574   1.207       .  T
C1579      C1587   1.441       .  S
C1579      C1580   1.401       .  A
C1579      C1584   1.402       .  A
C1580      C1581   1.399       .  A
C1580      H1589   1.084       .  S
C1581      C1582   1.401       .  A
C1581      H1590   1.083       .  S
C1582      C1585   1.442       .  S
C1582      C1583   1.402       .  A
C1583      C1584   1.401       .  A
C1583      H1591   1.083       .  S
C1584      H1592   1.084       .  S
C1585      C1586   1.207       .  T
C1587      C1588   1.207       .  T
C1593      C1601   1.439       .  S
C1593      C1594   1.401       .  A
C1593      C1598   1.402       .  A
C1594      C1595   1.399       .  A
C1594      H1603   1.083       .  S
C1595      C1596   1.402       .  A
C1595      H1604   1.083       .  S
C1596      C1599   1.440       .  S
C1596      C1597   1.401       .  A
C1597      C1598   1.399       .  A
C1597      H1605   1.083       .  S
C1598      H1606   1.084       .  S
C1599      C1600   1.206       .  T
C1601      C1602   1.206       .  T
C1607      C1615   1.441       .  S
C1607      C1608   1.401       .  A
C1607      C1612   1.402       .  A
C1608      C1609   1.398       .  A
C1608      H1617   1.084       .  S
C1609      C1610   1.401       .  A
C1609      H1618   1.083       .  S
C1610      C1613   1.441       .  S
C1610      C1611   1.402       .  A
C1611      C1612   1.401       .  A
C1611      H1619   1.083       .  S
C1612      H1620   1.083       .  S
C1613      C1614   1.207       .  T
C1615      C1616   1.207       .  T
C1621      C1629   1.439       .  S
C1621      C1622   1.401       .  A
C1621      C1626   1.401       .  A
C1622      C1623   1.399       .  A
C1622      H1631   1.084       .  S
C1623      C1624   1.402       .  A
C1623      H1632   1.083       .  S
C1624      C1627   1.440       .  S
C1624      C1625   1.401       .  A
C1625      C1626   1.399       .  A
C1625      H1633   1.083       .  S
C1626      H1634   1.084       .  S
C1627      C1628   1.206       .  T
C1629      C1630   1.206       .  T
C1635      C1643   1.437       .  S
C1635      C1636   1.401       .  A
C1635      C1640   1.401       .  A
C1636      C1637   1.398       .  A
C1636      H1645   1.083       .  S
C1637      C1638   1.401       .  A
C1637      H1646   1.084       .  S
C1638      C1641   1.438       .  S
C1638      C1639   1.401       .  A
C1639      C1640   1.398       .  A
C1639      H1647   1.083       .  S
C1640      H1648   1.083       .  S
C1641      C1642   1.205       .  T
C1643      C1644   1.205       .  T
C1649      C1657   1.435       .  S
C1649      C1650   1.401       .  A
C1649      C1654   1.400       .  A
C1650      C1651   1.398       .  A
C1650      H1659   1.083       .  S
C1651      C1652   1.401       .  A
C1651      H1660   1.083       .  S
C1652      C1655   1.436       .  S
C1652      C1653   1.401       .  A
C1653      C1654   1.397       .  A
C1653      H1661   1.084       .  S
C1654      H1662   1.084       .  S
C1655      C1656   1.203       .  T
C1657      C1658   1.203       .  T
C1663      C1671   1.437       .  S
C1663      C1664   1.401       .  A
C1663      C1668   1.401       .  A
C1664      C1665   1.398       .  A
C1664      H1673   1.084       .  S
C1665      C1666   1.401       .  A
C1665      H1674   1.084       .  S
C1666      C1669   1.438       .  S
C1666      C1667   1.401       .  A
C1667      C1668   1.399       .  A
C1667      H1675   1.083       .  S
C1668      H1676   1.082       .  S
C1669      C1670   1.205       .  T
C1671      C1672   1.205       .  T
C1677      C1685   1.437       .  S
C1677      C1678   1.401       .  A
C1677      C1682   1.401       .  A
C1678      C1679   1.398       .  A
C1678      H1687   1.083       .  S
C1679      C1680   1.400       .  A
C1679      H1688   1.082       .  S
C1680      C1683   1.436       .  S
C1680      C1681   1.401       .  A
C1681      C1682   1.397       .  A
C1681      H1689   1.084       .  S
C1682      H1690   1.083       .  S
C1683      C1684   1.204       .  T
C1685      C1686   1.204       .  T
C1691      C1699   1.436       .  S
C1691      C1692   1.401       .  A
C1691      C1696   1.401       .  A
C1692      C1693   1.397       .  A
C1692      H1701   1.083       .  S
C1693      C1694   1.400       .  A
C1693      H1702   1.084       .  S
C1694      C1697   1.436       .  S
C1694      C1695   1.401       .  A
C1695      C1696   1.398       .  A
C1695      H1703   1.083       .  S
C1696      H1704   1.083       .  S
C1697      C1698   1.204       .  T
C1699      C1700   1.204       .  T
C1705      C1713   1.439       .  S
C1705      C1706   1.400       .  A
C1705      C1710   1.402       .  A
C1706      C1707   1.398       .  A
C1706      H1715   1.083       .  S
C1707      C1708   1.401       .  A
C1707      H1716   1.083       .  S
C1708      C1711   1.440       .  S
C1708      C1709   1.402       .  A
C1709      C1710   1.400       .  A
C1709      H1717   1.083       .  S
C1710      H1718   1.084       .  S
C1711      C1712   1.206       .  T
C1713      C1714   1.205       .  T
C1719      C1727   1.437       .  S
C1719      C1720   1.400       .  A
C1719      C1724   1.401       .  A
C1720      C1721   1.397       .  A
C1720      H1729   1.083       .  S
C1721      C1722   1.401       .  A
C1721      H1730   1.084       .  S
C1722      C1725   1.438       .  S
C1722      C1723   1.401       .  A
C1723      C1724   1.399       .  A
C1723      H1731   1.083       .  S
C1724      H1732   1.083       .  S
C1725      C1726   1.205       .  T
C1727      C1728   1.204       .  T
C1733      C1741   1.439       .  S
C1733      C1734   1.402       .  A
C1733      C1738   1.401       .  A
C1734      C1735   1.400       .  A
C1734      H1743   1.083       .  S
C1735      C1736   1.401       .  A
C1735      H1744   1.083       .  S
C1736      C1739   1.439       .  S
C1736      C1737   1.401       .  A
C1737      C1738   1.398       .  A
C1737      H1745   1.084       .  S
C1738      H1746   1.084       .  S
C1739      C1740   1.205       .  T
C1741      C1742   1.206       .  T
C1747      C1755   1.438       .  S
C1747      C1748   1.401       .  A
C1747      C1752   1.401       .  A
C1748      C1749   1.399       .  A
C1748      H1757   1.083       .  S
C1749      C1750   1.401       .  A
C1749      H1758   1.084       .  S
C1750      C1753   1.437       .  S
C1750      C1751   1.400       .  A
C1751      C1752   1.398       .  A
C1751      H1759   1.082       .  S
C1752      H1760   1.083       .  S
C1753      C1754   1.205       .  T
C1755      C1756   1.205       .  T
C1761      C1769   1.438       .  S
C1761      C1762   1.401       .  A
C1761      C1766   1.401       .  A
C1762      C1763   1.398       .  A
C1762      H1771   1.083       .  S
C1763      C1764   1.400       .  A
C1763      H1772   1.084       .  S
C1764      C1767   1.435       .  S
C1764      C1765   1.401       .  A
C1765      C1766   1.398       .  A
C1765      H1773   1.083       .  S
C1766      H1774   1.083       .  S
C1767      C1768   1.203       .  T
C1769      C1770   1.205       .  T
C1775      C1783   1.440       .  S
C1775      C1776   1.402       .  A
C1775      C1780   1.401       .  A
C1776      C1777   1.401       .  A
C1776      H1785   1.083       .  S
C1777      C1778   1.402       .  A
C1777      H1786   1.083       .  S
C1778      C1781   1.440       .  S
C1778      C1779   1.401       .  A
C1779      C1780   1.398       .  A
C1779      H1787   1.084       .  S
C1780      H1788   1.084       .  S
C1781      C1782   1.206       .  T
C1783      C1784   1.206       .  T
C1789      C1797   1.438       .  S
C1789      C1790   1.401       .  A
C1789      C1794   1.401       .  A
C1790      C1791   1.398       .  A
C1790      H1799   1.083       .  S
C1791      C1792   1.400       .  A
C1791      H1800   1.084       .  S
C1792      C1795   1.439       .  S
C1792      C1793   1.402       .  A
C1793      C1794   1.399       .  A
C1793      H1801   1.083       .  S
C1794      H1802   1.084       .  S
C1795      C1796   1.205       .  T
C1797      C1798   1.205       .  T
C1803      C1811   1.440       .  S
C1803      C1804   1.401       .  A
C1803      C1808   1.402       .  A
C1804      C1805   1.398       .  A
C1804      H1813   1.083       .  S
C1805      C1806   1.401       .  A
C1805      H1814   1.084       .  S
C1806      C1809   1.439       .  S
C1806      C1807   1.401       .  A
C1807      C1808   1.400       .  A
C1807      H1815   1.083       .  S
C1808      H1816   1.083       .  S
C1809      C1810   1.206       .  T
C1811      C1812   1.206       .  T
C1817      C1825   1.436       .  S
C1817      C1818   1.401       .  A
C1817      C1822   1.400       .  A
C1818      C1819   1.399       .  A
C1818      H1827   1.083       .  S
C1819      C1820   1.401       .  A
C1819      H1828   1.083       .  S
C1820      C1823   1.436       .  S
C1820      C1821   1.400       .  A
C1821      C1822   1.396       .  A
C1821      H1829   1.084       .  S
C1822      H1830   1.084       .  S
C1823      C1824   1.203       .  T
C1825      C1826   1.204       .  T
C1831      C1839   1.438       .  S
C1831      C1832   1.401       .  A
C1831      C1836   1.401       .  A
C1832      C1833   1.399       .  A
C1832      H1841   1.083       .  S
C1833      C1834   1.401       .  A
C1833      H1842   1.083       .  S
C1834      C1837   1.439       .  S
C1834      C1835   1.401       .  A
C1835      C1836   1.399       .  A
C1835      H1843   1.083       .  S
C1836      H1844   1.084       .  S
C1837      C1838   1.206       .  T
C1839      C1840   1.205       .  T
C1845      C1853   1.439       .  S
C1845      C1846   1.402       .  A
C1845      C1850   1.401       .  A
C1846      C1847   1.400       .  A
C1846      H1855   1.084       .  S
C1847      C1848   1.402       .  A
C1847      H1856   1.083       .  S
C1848      C1851   1.440       .  S
C1848      C1849   1.401       .  A
C1849      C1850   1.398       .  A
C1849      H1857   1.083       .  S
C1850      H1858   1.083       .  S
C1851      C1852   1.206       .  T
C1853      C1854   1.206       .  T
C1859      C1867   1.437       .  S
C1859      C1860   1.401       .  A
C1859      C1864   1.401       .  A
C1860      C1861   1.398       .  A
C1860      H1869   1.084       .  S
C1861      C1862   1.401       .  A
C1861      H1870   1.083       .  S
C1862      C1865   1.437       .  S
C1862      C1863   1.401       .  A
C1863      C1864   1.399       .  A
C1863      H1871   1.083       .  S
C1864      H1872   1.083       .  S
C1865      C1866   1.204       .  T
C1867      C1868   1.204       .  T
C1873      C1881   1.436       .  S
C1873      C1874   1.401       .  A
C1873      C1878   1.401       .  A
C1874      C1875   1.398       .  A
C1874      H1883   1.084       .  S
C1875      C1876   1.401       .  A
C1875      H1884   1.083       .  S
C1876      C1879   1.438       .  S
C1876      C1877   1.401       .  A
C1877      C1878   1.398       .  A
C1877      H1885   1.083       .  S
C1878      H1886   1.083       .  S
C1879      C1880   1.205       .  T
C1881      C1882   1.204       .  T
C1887      C1895   1.439       .  S
C1887      C1888   1.402       .  A
C1887      C1892   1.401       .  A
C1888      C1889   1.399       .  A
C1888      H1897   1.083       .  S
C1889      C1890   1.401       .  A
C1889      H1898   1.083       .  S
C1890      C1893   1.438       .  S
C1890      C1891   1.401       .  A
C1891      C1892   1.398       .  A
C1891      H1899   1.084       .  S
C1892      H1900   1.083       .  S
C1893      C1894   1.205       .  T
C1895      C1896   1.206       .  T
C1901      C1909   1.438       .  S
C1901      C1902   1.401       .  A
C1901      C1906   1.401       .  A
C1902      C1903   1.399   1_554  A
C1902      H1911   1.083       .  S
C1903      C1904   1.401       .  A
C1903      H1912   1.083       .  S
C1904      C1907   1.438       .  S
C1904      C1905   1.401       .  A
C1905      C1906   1.398   1_556  A
C1905      H1913   1.083       .  S
C1906      H1914   1.084       .  S
C1907      C1908   1.205       .  T
C1909      C1910   1.205       .  T
C1915      C1923   1.440       .  S
C1915      C1916   1.402       .  A
C1915      C1920   1.401       .  A
C1916      C1917   1.399       .  A
C1916      H1925   1.083       .  S
C1917      C1918   1.401       .  A
C1917      H1926   1.083       .  S
C1918      C1921   1.438       .  S
C1918      C1919   1.401       .  A
C1919      C1920   1.398       .  A
C1919      H1927   1.084       .  S
C1920      H1928   1.083       .  S
C1921      C1922   1.205       .  T
C1923      C1924   1.206       .  T
C1929      C1937   1.437       .  S
C1929      C1930   1.401       .  A
C1929      C1934   1.401       .  A
C1930      C1931   1.399       .  A
C1930      H1939   1.084       .  S
C1931      C1932   1.402       .  A
C1931      H1940   1.083       .  S
C1932      C1935   1.439       .  S
C1932      C1933   1.401       .  A
C1933      C1934   1.398       .  A
C1933      H1941   1.084       .  S
C1934      H1942   1.083       .  S
C1935      C1936   1.205       .  T
C1937      C1938   1.204       .  T
C1943      C1951   1.439       .  S
C1943      C1944   1.401       .  A
C1943      C1948   1.402       .  A
C1944      C1945   1.398   1_455  A
C1944      H1953   1.084       .  S
C1945      C1946   1.401       .  A
C1945      H1954   1.084       .  S
C1946      C1949   1.439       .  S
C1946      C1947   1.402       .  A
C1947      C1948   1.400   1_655  A
C1947      H1955   1.083       .  S
C1948      H1956   1.083       .  S
C1949      C1950   1.205       .  T
C1951      C1952   1.205       .  T
C1957      C1965   1.438       .  S
C1957      C1958   1.401       .  A
C1957      C1962   1.401       .  A
C1958      C1959   1.398       .  A
C1958      H1967   1.083       .  S
C1959      C1960   1.401       .  A
C1959      H1968   1.083       .  S
C1960      C1963   1.439       .  S
C1960      C1961   1.402       .  A
C1961      C1962   1.399       .  A
C1961      H1969   1.083       .  S
C1962      H1970   1.083       .  S
C1963      C1964   1.205       .  T
C1965      C1966   1.205       .  T
C1971      C1979   1.438       .  S
C1971      C1972   1.402       .  A
C1971      C1976   1.400       .  A
C1972      C1973   1.399       .  A
C1972      H1981   1.084       .  S
C1973      C1974   1.402       .  A
C1973      H1982   1.083       .  S
C1974      C1977   1.438       .  S
C1974      C1975   1.401       .  A
C1975      C1976   1.397       .  A
C1975      H1983   1.084       .  S
C1976      H1984   1.083       .  S
C1977      C1978   1.205       .  T
C1979      C1980   1.205       .  T
C1985      C1993   1.435       .  S
C1985      C1986   1.400       .  A
C1985      C1990   1.400       .  A
C1986      C1987   1.397       .  A
C1986      H1995   1.084       .  S
C1987      C1988   1.400       .  A
C1987      H1996   1.083       .  S
C1988      C1991   1.435       .  S
C1988      C1989   1.401       .  A
C1989      C1990   1.397       .  A
C1989      H1997   1.084       .  S
C1990      H1998   1.083       .  S
C1991      C1992   1.203       .  T
C1993      C1994   1.203       .  T
C1999      C2007   1.441       .  S
C1999      C2000   1.402       .  A
C1999      C2004   1.401       .  A
C2000      C2001   1.400       .  A
C2000      H2009   1.083       .  S
C2001      C2002   1.402       .  A
C2001      H2010   1.083       .  S
C2002      C2005   1.442       .  S
C2002      C2003   1.402       .  A
C2003      C2004   1.400       .  A
C2003      H2011   1.083       .  S
C2004      H2012   1.083       .  S
C2005      C2006   1.207       .  T
C2007      C2008   1.207       .  T
C2013      C2021   1.440       .  S
C2013      C2014   1.402       .  A
C2013      C2018   1.401       .  A
C2014      C2015   1.399       .  A
C2014      H2023   1.083       .  S
C2015      C2016   1.401       .  A
C2015      H2024   1.084       .  S
C2016      C2019   1.439       .  S
C2016      C2017   1.401       .  A
C2017      C2018   1.399       .  A
C2017      H2025   1.084       .  S
C2018      H2026   1.083       .  S
C2019      C2020   1.206       .  T
C2021      C2022   1.206       .  T
C2027      C2035   1.438       .  S
C2027      C2028   1.401       .  A
C2027      C2032   1.401       .  A
C2028      C2029   1.398   1_556  A
C2028      H2037   1.084       .  S
C2029      C2030   1.401       .  A
C2029      H2038   1.083       .  S
C2030      C2033   1.438       .  S
C2030      C2031   1.401       .  A
C2031      C2032   1.399   1_554  A
C2031      H2039   1.083       .  S
C2032      H2040   1.083       .  S
C2033      C2034   1.205       .  T
C2035      C2036   1.205       .  T
C2041      C2049   1.436       .  S
C2041      C2042   1.401       .  A
C2041      C2046   1.400       .  A
C2042      C2043   1.398       .  A
C2042      H2051   1.083       .  S
C2043      C2044   1.400       .  A
C2043      H2052   1.082       .  S
C2044      C2047   1.435       .  S
C2044      C2045   1.400       .  A
C2045      C2046   1.397       .  A
C2045      H2053   1.083       .  S
C2046      H2054   1.084       .  S
C2047      C2048   1.204       .  T
C2049      C2050   1.204       .  T
C2055      C2063   1.440       .  S
C2055      C2056   1.402       .  A
C2055      C2060   1.401       .  A
C2056      C2057   1.400       .  A
C2056      H2065   1.083       .  S
C2057      C2058   1.402       .  A
C2057      H2066   1.083       .  S
C2058      C2061   1.441       .  S
C2058      C2059   1.401       .  A
C2059      C2060   1.399       .  A
C2059      H2067   1.083       .  S
C2060      H2068   1.082       .  S
C2061      C2062   1.206       .  T
C2063      C2064   1.207       .  T
C2069      C2077   1.440       .  S
C2069      C2070   1.401       .  A
C2069      C2074   1.401       .  A
C2070      C2071   1.399   1_554  A
C2070      H2079   1.083       .  S
C2071      C2072   1.401       .  A
C2071      H2080   1.083       .  S
C2072      C2075   1.440       .  S
C2072      C2073   1.401       .  A
C2073      C2074   1.399   1_556  A
C2073      H2081   1.083       .  S
C2074      H2082   1.083       .  S
C2075      C2076   1.206       .  T
C2077      C2078   1.206       .  T
C2083      C2091   1.439       .  S
C2083      C2084   1.401       .  A
C2083      C2088   1.401       .  A
C2084      C2085   1.399       .  A
C2084      H2093   1.084       .  S
C2085      C2086   1.401       .  A
C2085      H2094   1.083       .  S
C2086      C2089   1.441       .  S
C2086      C2087   1.402       .  A
C2087      C2088   1.400       .  A
C2087      H2095   1.083       .  S
C2088      H2096   1.083       .  S
C2089      C2090   1.206       .  T
C2091      C2092   1.206       .  T
C2097      C2105   1.440       .  S
C2097      C2098   1.401       .  A
C2097      C2102   1.401       .  A
C2098      C2099   1.399       .  A
C2098      H2107   1.083       .  S
C2099      C2100   1.402       .  A
C2099      H2108   1.083       .  S
C2100      C2103   1.441       .  S
C2100      C2101   1.401       .  A
C2101      C2102   1.399       .  A
C2101      H2109   1.083       .  S
C2102      H2110   1.084       .  S
C2103      C2104   1.207       .  T
C2105      C2106   1.206       .  T
C2111      C2119   1.441       .  S
C2111      C2112   1.402       .  A
C2111      C2116   1.401       .  A
C2112      C2113   1.400       .  A
C2112      H2121   1.083       .  S
C2113      C2114   1.402       .  A
C2113      H2122   1.083       .  S
C2114      C2117   1.440       .  S
C2114      C2115   1.401       .  A
C2115      C2116   1.398       .  A
C2115      H2123   1.084       .  S
C2116      H2124   1.084       .  S
C2117      C2118   1.206       .  T
C2119      C2120   1.206       .  T
C2125      C2133   1.434       .  S
C2125      C2126   1.400       .  A
C2125      C2130   1.401       .  A
C2126      C2127   1.396       .  A
C2126      H2135   1.084       .  S
C2127      C2128   1.400       .  A
C2127      H2136   1.084       .  S
C2128      C2131   1.436       .  S
C2128      C2129   1.401       .  A
C2129      C2130   1.398       .  A
C2129      H2137   1.083       .  S
C2130      H2138   1.083       .  S
C2131      C2132   1.204       .  T
C2133      C2134   1.203       .  T
C2139      C2147   1.437       .  S
C2139      C2140   1.401       .  A
C2139      C2144   1.401       .  A
C2140      C2141   1.399       .  A
C2140      H2149   1.084       .  S
C2141      C2142   1.402       .  A
C2141      H2150   1.083       .  S
C2142      C2145   1.439       .  S
C2142      C2143   1.401       .  A
C2143      C2144   1.398       .  A
C2143      H2151   1.083       .  S
C2144      H2152   1.084       .  S
C2145      C2146   1.206       .  T
C2147      C2148   1.205       .  T
C2153      C2161   1.438       .  S
C2153      C2154   1.401       .  A
C2153      C2158   1.401       .  A
C2154      C2155   1.399   1_455  A
C2154      H2163   1.083       .  S
C2155      C2156   1.402       .  A
C2155      H2164   1.083       .  S
C2156      C2159   1.439       .  S
C2156      C2157   1.401       .  A
C2157      C2158   1.398   1_655  A
C2157      H2165   1.083       .  S
C2158      H2166   1.084       .  S
C2159      C2160   1.205       .  T
C2161      C2162   1.205       .  T
C2167      C2175   1.435       .  S
C2167      C2168   1.401       .  A
C2167      C2172   1.400       .  A
C2168      C2169   1.397       .  A
C2168      H2177   1.084       .  S
C2169      C2170   1.401       .  A
C2169      H2178   1.083       .  S
C2170      C2173   1.436       .  S
C2170      C2171   1.401       .  A
C2171      C2172   1.398       .  A
C2171      H2179   1.084       .  S
C2172      H2180   1.083       .  S
C2173      C2174   1.204       .  T
C2175      C2176   1.203       .  T
C2181      C2189   1.438       .  S
C2181      C2182   1.401       .  A
C2181      C2186   1.401       .  A
C2182      C2183   1.398       .  A
C2182      H2191   1.083       .  S
C2183      C2184   1.401       .  A
C2183      H2192   1.084       .  S
C2184      C2187   1.437       .  S
C2184      C2185   1.400       .  A
C2185      C2186   1.398       .  A
C2185      H2193   1.083       .  S
C2186      H2194   1.083       .  S
C2187      C2188   1.204       .  T
C2189      C2190   1.205       .  T
C2195      C2203   1.436       .  S
C2195      C2196   1.400       .  A
C2195      C2200   1.401       .  A
C2196      C2197   1.397       .  A
C2196      H2205   1.084       .  S
C2197      C2198   1.401       .  A
C2197      H2206   1.084       .  S
C2198      C2201   1.436       .  S
C2198      C2199   1.401       .  A
C2199      C2200   1.398       .  A
C2199      H2207   1.083       .  S
C2200      H2208   1.083       .  S
C2201      C2202   1.203       .  T
C2203      C2204   1.204       .  T
C2209      C2217   1.439       .  S
C2209      C2210   1.401       .  A
C2209      C2214   1.401       .  A
C2210      C2211   1.399       .  A
C2210      H2219   1.083       .  S
C2211      C2212   1.401       .  A
C2211      H2220   1.083       .  S
C2212      C2215   1.441       .  S
C2212      C2213   1.402       .  A
C2213      C2214   1.400       .  A
C2213      H2221   1.083       .  S
C2214      H2222   1.083       .  S
C2215      C2216   1.206       .  T
C2217      C2218   1.206       .  T
C2223      C2231   1.438       .  S
C2223      C2224   1.401       .  A
C2223      C2228   1.401       .  A
C2224      C2225   1.398       .  A
C2224      H2233   1.084       .  S
C2225      C2226   1.401       .  A
C2225      H2234   1.083       .  S
C2226      C2229   1.438       .  S
C2226      C2227   1.401       .  A
C2227      C2228   1.399       .  A
C2227      H2235   1.083       .  S
C2228      H2236   1.082       .  S
C2229      C2230   1.205       .  T
C2231      C2232   1.205       .  T
C2237      C2245   1.438       .  S
C2237      C2238   1.402       .  A
C2237      C2242   1.400       .  A
C2238      C2239   1.400   1_455  A
C2238      H2247   1.083       .  S
C2239      C2240   1.402       .  A
C2239      H2248   1.083       .  S
C2240      C2243   1.438       .  S
C2240      C2241   1.400       .  A
C2241      C2242   1.397   1_655  A
C2241      H2249   1.084       .  S
C2242      H2250   1.084       .  S
C2243      C2244   1.205       .  T
C2245      C2246   1.205       .  T
C2251      C2259   1.440       .  S
C2251      C2252   1.401       .  A
C2251      C2256   1.401       .  A
C2252      C2253   1.399       .  A
C2252      H2261   1.083       .  S
C2253      C2254   1.402       .  A
C2253      H2262   1.083       .  S
C2254      C2257   1.441       .  S
C2254      C2255   1.401       .  A
C2255      C2256   1.399       .  A
C2255      H2263   1.083       .  S
C2256      H2264   1.084       .  S
C2257      C2258   1.206       .  T
C2259      C2260   1.206       .  T
C2265      C2273   1.438       .  S
C2265      C2266   1.400       .  A
C2265      C2270   1.402       .  A
C2266      C2267   1.397       .  A
C2266      H2275   1.083       .  S
C2267      C2268   1.401       .  A
C2267      H2276   1.084       .  S
C2268      C2271   1.437       .  S
C2268      C2269   1.401       .  A
C2269      C2270   1.399       .  A
C2269      H2277   1.083       .  S
C2270      H2278   1.083       .  S
C2271      C2272   1.204       .  T
C2273      C2274   1.205       .  T
C2279      C2287   1.438       .  S
C2279      C2280   1.401       .  A
C2279      C2284   1.401       .  A
C2280      C2281   1.398   1_554  A
C2280      H2289   1.083       .  S
C2281      C2282   1.401       .  A
C2281      H2290   1.084       .  S
C2282      C2285   1.438       .  S
C2282      C2283   1.401       .  A
C2283      C2284   1.399   1_556  A
C2283      H2291   1.083       .  S
C2284      H2292   1.083       .  S
C2285      C2286   1.205       .  T
C2287      C2288   1.205       .  T
C2293      C2301   1.438       .  S
C2293      C2294   1.401       .  A
C2293      C2298   1.401       .  A
C2294      C2295   1.398       .  A
C2294      H2303   1.084       .  S
C2295      C2296   1.401       .  A
C2295      H2304   1.083       .  S
C2296      C2299   1.440       .  S
C2296      C2297   1.402       .  A
C2297      C2298   1.399       .  A
C2297      H2305   1.083       .  S
C2298      H2306   1.084       .  S
C2299      C2300   1.206       .  T
C2301      C2302   1.205       .  T
C2307      C2315   1.436       .  S
C2307      C2308   1.401       .  A
C2307      C2312   1.401       .  A
C2308      C2309   1.398       .  A
C2308      H2317   1.084       .  S
C2309      C2310   1.401       .  A
C2309      H2318   1.083       .  S
C2310      C2313   1.438       .  S
C2310      C2311   1.401       .  A
C2311      C2312   1.398       .  A
C2311      H2319   1.083       .  S
C2312      H2320   1.084       .  S
C2313      C2314   1.205       .  T
C2315      C2316   1.204       .  T
C2321      C2329   1.440       .  S
C2321      C2322   1.401       .  A
C2321      C2326   1.401       .  A
C2322      C2323   1.399   1_455  A
C2322      H2331   1.083       .  S
C2323      C2324   1.401       .  A
C2323      H2332   1.083       .  S
C2324      C2327   1.440       .  S
C2324      C2325   1.401       .  A
C2325      C2326   1.399   1_655  A
C2325      H2333   1.083       .  S
C2326      H2334   1.083       .  S
C2327      C2328   1.206       .  T
C2329      C2330   1.206       .  T
C2335      C2343   1.441       .  S
C2335      C2336   1.402       .  A
C2335      C2340   1.402       .  A
C2336      C2337   1.399       .  A
C2336      H2345   1.083       .  S
C2337      C2338   1.401       .  A
C2337      H2346   1.083       .  S
C2338      C2341   1.439       .  S
C2338      C2339   1.401       .  A
C2339      C2340   1.399       .  A
C2339      H2347   1.084       .  S
C2340      H2348   1.083       .  S
C2341      C2342   1.205       .  T
C2343      C2344   1.207       .  T
C2349      C2357   1.438       .  S
C2349      C2350   1.401       .  A
C2349      C2354   1.401       .  A
C2350      C2351   1.398       .  A
C2350      H2359   1.083       .  S
C2351      C2352   1.401       .  A
C2351      H2360   1.083       .  S
C2352      C2355   1.436       .  S
C2352      C2353   1.400       .  A
C2353      C2354   1.398       .  A
C2353      H2361   1.083       .  S
C2354      H2362   1.083       .  S
C2355      C2356   1.204       .  T
C2357      C2358   1.205       .  T
C2363      C2371   1.440       .  S
C2363      C2364   1.402       .  A
C2363      C2368   1.401       .  A
C2364      C2365   1.400       .  A
C2364      H2373   1.083       .  S
C2365      C2366   1.402       .  A
C2365      H2374   1.083       .  S
C2366      C2369   1.439       .  S
C2366      C2367   1.401       .  A
C2367      C2368   1.398       .  A
C2367      H2375   1.084       .  S
C2368      H2376   1.084       .  S
C2369      C2370   1.205       .  T
C2371      C2372   1.206       .  T
C2377      C2385   1.440       .  S
C2377      C2378   1.402       .  A
C2377      C2382   1.401       .  A
C2378      C2379   1.401       .  A
C2378      H2387   1.083       .  S
C2379      C2380   1.402       .  A
C2379      H2388   1.083       .  S
C2380      C2383   1.441       .  S
C2380      C2381   1.401       .  A
C2381      C2382   1.398       .  A
C2381      H2389   1.084       .  S
C2382      H2390   1.084       .  S
C2383      C2384   1.207       .  T
C2385      C2386   1.206       .  T
C2391      C2399   1.442       .  S
C2391      C2392   1.402       .  A
C2391      C2396   1.402       .  A
C2392      C2393   1.400       .  A
C2392      H2401   1.083       .  S
C2393      C2394   1.402       .  A
C2393      H2402   1.083       .  S
C2394      C2397   1.442       .  S
C2394      C2395   1.401       .  A
C2395      C2396   1.399       .  A
C2395      H2403   1.083       .  S
C2396      H2404   1.083       .  S
C2397      C2398   1.207       .  T
C2399      C2400   1.207       .  T
C2405      C2413   1.442       .  S
C2405      C2406   1.402       .  A
C2405      C2410   1.401       .  A
C2406      C2407   1.401       .  A
C2406      H2415   1.083       .  S
C2407      C2408   1.402   1_565  A
C2407      H2416   1.083       .  S
C2408      C2411   1.442       .  S
C2408      C2409   1.401       .  A
C2409      C2410   1.399   1_545  A
C2409      H2417   1.083       .  S
C2410      H2418   1.083       .  S
C2411      C2412   1.207       .  T
C2413      C2414   1.207       .  T
C2419      C2427   1.439       .  S
C2419      C2420   1.401       .  A
C2419      C2424   1.401       .  A
C2420      C2421   1.398       .  A
C2420      H2429   1.083       .  S
C2421      C2422   1.401   1_565  A
C2421      H2430   1.083       .  S
C2422      C2425   1.438       .  S
C2422      C2423   1.401       .  A
C2423      C2424   1.399   1_545  A
C2423      H2431   1.084       .  S
C2424      H2432   1.083       .  S
C2425      C2426   1.205       .  T
C2427      C2428   1.205       .  T
C2433      C2441   1.442       .  S
C2433      C2434   1.401       .  A
C2433      C2438   1.402       .  A
C2434      C2435   1.399       .  A
C2434      H2443   1.083       .  S
C2435      C2436   1.401       .  A
C2435      H2444   1.083       .  S
C2436      C2439   1.441       .  S
C2436      C2437   1.402       .  A
C2437      C2438   1.400       .  A
C2437      H2445   1.083       .  S
C2438      H2446   1.083       .  S
C2439      C2440   1.207       .  T
C2441      C2442   1.207       .  T
C2447      C2455   1.441       .  S
C2447      C2448   1.401   1_545  A
C2447      C2452   1.402   1_545  A
C2448      C2449   1.399       .  A
C2448      H2457   1.084   1_565  S
C2449      C2450   1.401       .  A
C2449      H2458   1.084       .  S
C2450      C2453   1.441       .  S
C2450      C2451   1.402       .  A
C2451      C2452   1.401       .  A
C2451      H2459   1.083       .  S
C2452      H2460   1.083   1_565  S
C2453      C2454   1.207       .  T
C2455      C2456   1.207       .  T
C2461      C2469   1.442       .  S
C2461      C2462   1.402       .  A
C2461      C2466   1.401       .  A
C2462      C2463   1.401       .  A
C2462      H2471   1.083       .  S
C2463      C2464   1.402       .  A
C2463      H2472   1.083       .  S
C2464      C2467   1.443       .  S
C2464      C2465   1.401       .  A
C2465      C2466   1.399       .  A
C2465      H2473   1.083       .  S
C2466      H2474   1.083       .  S
C2467      C2468   1.208       .  T
C2469      C2470   1.208       .  T
C2475      C2483   1.438       .  S
C2475      C2476   1.401       .  A
C2475      C2480   1.401   1_545  A
C2476      C2477   1.397   1_545  A
C2476      H2485   1.084       .  S
C2477      C2478   1.401       .  A
C2477      H2486   1.084       .  S
C2478      C2481   1.439       .  S
C2478      C2479   1.402       .  A
C2479      C2480   1.400       .  A
C2479      H2487   1.083       .  S
C2480      H2488   1.083       .  S
C2481      C2482   1.205       .  T
C2483      C2484   1.205       .  T
C2489      C2497   1.439       .  S
C2489      C2490   1.401       .  A
C2489      C2494   1.401       .  A
C2490      C2491   1.399       .  A
C2490      H2499   1.083       .  S
C2491      C2492   1.401       .  A
C2491      H2500   1.083       .  S
C2492      C2495   1.439       .  S
C2492      C2493   1.401       .  A
C2493      C2494   1.398       .  A
C2493      H2501   1.083       .  S
C2494      H2502   1.083       .  S
C2495      C2496   1.206       .  T
C2497      C2498   1.205       .  T
C2503      C2511   1.440       .  S
C2503      C2504   1.401       .  A
C2503      C2508   1.402       .  A
C2504      C2505   1.398       .  A
C2504      H2513   1.084       .  S
C2505      C2506   1.401       .  A
C2505      H2514   1.084       .  S
C2506      C2509   1.440       .  S
C2506      C2507   1.402       .  A
C2507      C2508   1.400       .  A
C2507      H2515   1.083       .  S
C2508      H2516   1.083       .  S
C2509      C2510   1.206       .  T
C2511      C2512   1.206       .  T
C2517      C2525   1.441       .  S
C2517      C2518   1.401       .  A
C2517      C2522   1.402   1_545  A
C2518      C2519   1.399   1_545  A
C2518      H2527   1.083       .  S
C2519      C2520   1.401       .  A
C2519      H2528   1.083       .  S
C2520      C2523   1.441       .  S
C2520      C2521   1.402       .  A
C2521      C2522   1.400       .  A
C2521      H2529   1.083       .  S
C2522      H2530   1.083       .  S
C2523      C2524   1.207       .  T
C2525      C2526   1.206       .  T
C2531      C2539   1.438       .  S
C2531      C2532   1.401       .  A
C2531      C2536   1.401       .  A
C2532      C2533   1.398   1_565  A
C2532      H2541   1.083       .  S
C2533      C2534   1.401       .  A
C2533      H2542   1.083       .  S
C2534      C2537   1.438       .  S
C2534      C2535   1.401   1_545  A
C2535      C2536   1.398       .  A
C2535      H2543   1.083       .  S
C2536      H2544   1.083       .  S
C2537      C2538   1.205       .  T
C2539      C2540   1.205       .  T
C2545      C2553   1.440       .  S
C2545      C2546   1.402       .  A
C2545      C2550   1.401       .  A
C2546      C2547   1.400       .  A
C2546      H2555   1.083       .  S
C2547      C2548   1.402       .  A
C2547      H2556   1.083       .  S
C2548      C2551   1.441       .  S
C2548      C2549   1.401       .  A
C2549      C2550   1.398       .  A
C2549      H2557   1.083       .  S
C2550      H2558   1.084       .  S
C2551      C2552   1.207       .  T
C2553      C2554   1.206       .  T
C2559      C2567   1.440       .  S
C2559      C2560   1.401       .  A
C2559      C2564   1.402       .  A
C2560      C2561   1.398       .  A
C2560      H2569   1.084       .  S
C2561      C2562   1.401       .  A
C2561      H2570   1.083       .  S
C2562      C2565   1.440       .  S
C2562      C2563   1.402       .  A
C2563      C2564   1.400       .  A
C2563      H2571   1.083       .  S
C2564      H2572   1.083       .  S
C2565      C2566   1.206       .  T
C2567      C2568   1.206       .  T
C2573      C2581   1.439       .  S
C2573      C2574   1.401       .  A
C2573      C2578   1.401       .  A
C2574      C2575   1.398       .  A
C2574      H2583   1.083       .  S
C2575      C2576   1.401       .  A
C2575      H2584   1.083       .  S
C2576      C2579   1.439       .  S
C2576      C2577   1.401       .  A
C2577      C2578   1.399       .  A
C2577      H2585   1.083       .  S
C2578      H2586   1.083       .  S
C2579      C2580   1.205       .  T
C2581      C2582   1.205       .  T
C2587      C2595   1.443       .  S
C2587      C2588   1.402       .  A
C2587      C2592   1.401       .  A
C2588      C2589   1.401       .  A
C2588      H2597   1.083       .  S
C2589      C2590   1.402       .  A
C2589      H2598   1.083       .  S
C2590      C2593   1.443       .  S
C2590      C2591   1.402       .  A
C2591      C2592   1.399       .  A
C2591      H2599   1.083       .  S
C2592      H2600   1.083       .  S
C2593      C2594   1.208       .  T
C2595      C2596   1.208       .  T
C2601      C2609   1.439       .  S
C2601      C2602   1.401       .  A
C2601      C2606   1.401       .  A
C2602      C2603   1.399       .  A
C2602      H2611   1.083       .  S
C2603      C2604   1.401       .  A
C2603      H2612   1.083       .  S
C2604      C2607   1.439       .  S
C2604      C2605   1.401       .  A
C2605      C2606   1.399       .  A
C2605      H2613   1.083       .  S
C2606      H2614   1.083       .  S
C2607      C2608   1.206       .  T
C2609      C2610   1.206       .  T
C2615      C2623   1.440       .  S
C2615      C2616   1.402       .  A
C2615      C2620   1.401   1_545  A
C2616      C2617   1.400   1_545  A
C2616      H2625   1.083       .  S
C2617      C2618   1.402       .  A
C2617      H2626   1.083   1_565  S
C2618      C2621   1.441       .  S
C2618      C2619   1.401       .  A
C2619      C2620   1.399       .  A
C2619      H2627   1.083       .  S
C2620      H2628   1.083       .  S
C2621      C2622   1.206       .  T
C2623      C2624   1.206       .  T
C2629      C2637   1.443       .  S
C2629      C2630   1.401       .  A
C2629      C2634   1.402       .  A
C2630      C2631   1.399       .  A
C2630      H2639   1.083       .  S
C2631      C2632   1.401       .  A
C2631      H2640   1.083       .  S
C2632      C2635   1.444       .  S
C2632      C2633   1.403       .  A
C2633      C2634   1.402       .  A
C2633      H2641   1.083       .  S
C2634      H2642   1.083       .  S
C2635      C2636   1.208       .  T
C2637      C2638   1.208       .  T
C2643      C2651   1.438       .  S
C2643      C2644   1.401   1_545  A
C2643      C2648   1.401       .  A
C2644      C2645   1.398       .  A
C2644      H2653   1.083       .  S
C2645      C2646   1.401       .  A
C2645      H2654   1.083       .  S
C2646      C2649   1.438       .  S
C2646      C2647   1.401       .  A
C2647      C2648   1.399   1_565  A
C2647      H2655   1.083       .  S
C2648      H2656   1.083       .  S
C2649      C2650   1.205       .  T
C2651      C2652   1.205       .  T
C2657      C2665   1.442       .  S
C2657      C2658   1.402       .  A
C2657      C2662   1.402       .  A
C2658      C2659   1.400       .  A
C2658      H2667   1.083       .  S
C2659      C2660   1.402       .  A
C2659      H2668   1.083       .  S
C2660      C2663   1.442       .  S
C2660      C2661   1.402       .  A
C2661      C2662   1.400       .  A
C2661      H2669   1.083       .  S
C2662      H2670   1.083       .  S
C2663      C2664   1.207       .  T
C2665      C2666   1.207       .  T
C2671      C2679   1.439       .  S
C2671      C2672   1.401       .  A
C2671      C2676   1.402       .  A
C2672      C2673   1.397       .  A
C2672      H2681   1.084       .  S
C2673      C2674   1.401       .  A
C2673      H2682   1.084       .  S
C2674      C2677   1.440       .  S
C2674      C2675   1.402       .  A
C2675      C2676   1.400       .  A
C2675      H2683   1.083       .  S
C2676      H2684   1.083       .  S
C2677      C2678   1.206       .  T
C2679      C2680   1.206       .  T
C2685      C2693   1.439       .  S
C2685      C2686   1.402       .  A
C2685      C2690   1.401       .  A
C2686      C2687   1.399       .  A
C2686      H2695   1.083       .  S
C2687      C2688   1.401       .  A
C2687      H2696   1.083       .  S
C2688      C2691   1.439       .  S
C2688      C2689   1.401       .  A
C2689      C2690   1.398       .  A
C2689      H2697   1.084       .  S
C2690      H2698   1.083       .  S
C2691      C2692   1.205       .  T
C2693      C2694   1.205       .  T
C2699      C2707   1.439       .  S
C2699      C2700   1.401       .  A
C2699      C2704   1.401       .  A
C2700      C2701   1.399       .  A
C2700      H2709   1.083       .  S
C2701      C2702   1.402       .  A
C2701      H2710   1.083       .  S
C2702      C2705   1.439       .  S
C2702      C2703   1.401       .  A
C2703      C2704   1.398       .  A
C2703      H2711   1.083       .  S
C2704      H2712   1.083       .  S
C2705      C2706   1.206       .  T
C2707      C2708   1.205       .  T
C2713      C2721   1.442       .  S
C2713      C2714   1.402       .  A
C2713      C2718   1.402       .  A
C2714      C2715   1.400       .  A
C2714      H2723   1.083       .  S
C2715      C2716   1.402       .  A
C2715      H2724   1.083       .  S
C2716      C2719   1.443       .  S
C2716      C2717   1.402       .  A
C2717      C2718   1.400       .  A
C2717      H2725   1.083       .  S
C2718      H2726   1.083       .  S
C2719      C2720   1.208       .  T
C2721      C2722   1.207       .  T
C2727      C2735   1.439       .  S
C2727      C2728   1.401       .  A
C2727      C2732   1.401       .  A
C2728      C2729   1.399       .  A
C2728      H2737   1.083       .  S
C2729      C2730   1.401       .  A
C2729      H2738   1.083       .  S
C2730      C2733   1.440       .  S
C2730      C2731   1.401       .  A
C2731      C2732   1.399       .  A
C2731      H2739   1.083       .  S
C2732      H2740   1.083       .  S
C2733      C2734   1.206       .  T
C2735      C2736   1.206       .  T
C2741      C2749   1.438       .  S
C2741      C2742   1.401       .  A
C2741      C2746   1.401       .  A
C2742      C2743   1.398       .  A
C2742      H2751   1.083       .  S
C2743      C2744   1.401       .  A
C2743      H2752   1.083       .  S
C2744      C2747   1.437       .  S
C2744      C2745   1.401       .  A
C2745      C2746   1.398       .  A
C2745      H2753   1.084       .  S
C2746      H2754   1.084       .  S
C2747      C2748   1.204       .  T
C2749      C2750   1.205       .  T
C2755      C2763   1.443       .  S
C2755      C2756   1.402       .  A
C2755      C2760   1.402       .  A
C2756      C2757   1.401       .  A
C2756      H2765   1.083       .  S
C2757      C2758   1.402       .  A
C2757      H2766   1.083       .  S
C2758      C2761   1.443       .  S
C2758      C2759   1.402       .  A
C2759      C2760   1.400       .  A
C2759      H2767   1.083       .  S
C2760      H2768   1.084       .  S
C2761      C2762   1.208       .  T
C2763      C2764   1.207       .  T
C2769      C2777   1.439       .  S
C2769      C2770   1.402       .  A
C2769      C2774   1.401       .  A
C2770      C2771   1.400       .  A
C2770      H2779   1.083       .  S
C2771      C2772   1.402       .  A
C2771      H2780   1.083       .  S
C2772      C2775   1.439       .  S
C2772      C2773   1.401       .  A
C2773      C2774   1.397       .  A
C2773      H2781   1.084       .  S
C2774      H2782   1.084       .  S
C2775      C2776   1.205       .  T
C2777      C2778   1.205       .  T
C2783      C2791   1.441       .  S
C2783      C2784   1.401       .  A
C2783      C2788   1.402       .  A
C2784      C2785   1.399       .  A
C2784      H2793   1.083       .  S
C2785      C2786   1.401       .  A
C2785      H2794   1.083       .  S
C2786      C2789   1.441       .  S
C2786      C2787   1.402       .  A
C2787      C2788   1.400       .  A
C2787      H2795   1.083       .  S
C2788      H2796   1.083       .  S
C2789      C2790   1.207       .  T
C2791      C2792   1.207       .  T
C2797      C2805   1.440       .  S
C2797      C2798   1.401       .  A
C2797      C2802   1.402       .  A
C2798      C2799   1.398       .  A
C2798      H2807   1.083       .  S
C2799      C2800   1.401       .  A
C2799      H2808   1.083       .  S
C2800      C2803   1.440       .  S
C2800      C2801   1.402       .  A
C2801      C2802   1.400       .  A
C2801      H2809   1.083       .  S
C2802      H2810   1.083       .  S
C2803      C2804   1.206       .  T
C2805      C2806   1.206       .  T
C2811      C2819   1.440       .  S
C2811      C2812   1.401       .  A
C2811      C2816   1.401       .  A
C2812      C2813   1.399       .  A
C2812      H2821   1.083       .  S
C2813      C2814   1.401       .  A
C2813      H2822   1.083       .  S
C2814      C2817   1.439       .  S
C2814      C2815   1.401       .  A
C2815      C2816   1.399       .  A
C2815      H2823   1.083       .  S
C2816      H2824   1.083       .  S
C2817      C2818   1.206       .  T
C2819      C2820   1.206       .  T
C2825      C2833   1.443       .  S
C2825      C2826   1.402       .  A
C2825      C2830   1.402       .  A
C2826      C2827   1.400       .  A
C2826      H2835   1.083       .  S
C2827      C2828   1.402       .  A
C2827      H2836   1.083       .  S
C2828      C2831   1.442       .  S
C2828      C2829   1.402       .  A
C2829      C2830   1.400       .  A
C2829      H2837   1.083       .  S
C2830      H2838   1.083       .  S
C2831      C2832   1.207       .  T
C2833      C2834   1.208       .  T
C2839      C2847   1.440       .  S
C2839      C2840   1.401       .  A
C2839      C2844   1.402       .  A
C2840      C2841   1.398       .  A
C2840      H2849   1.084       .  S
C2841      C2842   1.401       .  A
C2841      H2850   1.084       .  S
C2842      C2845   1.440       .  S
C2842      C2843   1.402       .  A
C2843      C2844   1.400       .  A
C2843      H2851   1.083       .  S
C2844      H2852   1.083       .  S
C2845      C2846   1.206       .  T
C2847      C2848   1.206       .  T
C2853      C2861   1.440       .  S
C2853      C2854   1.402       .  A
C2853      C2858   1.401       .  A
C2854      C2855   1.400       .  A
C2854      H2863   1.083       .  S
C2855      C2856   1.402       .  A
C2855      H2864   1.083       .  S
C2856      C2859   1.441       .  S
C2856      C2857   1.401       .  A
C2857      C2858   1.399       .  A
C2857      H2865   1.083       .  S
C2858      H2866   1.083       .  S
C2859      C2860   1.207       .  T
C2861      C2862   1.206       .  T
C2867      C2875   1.443       .  S
C2867      C2868   1.402       .  A
C2867      C2872   1.402       .  A
C2868      C2869   1.401       .  A
C2868      H2877   1.083       .  S
C2869      C2870   1.403       .  A
C2869      H2878   1.083       .  S
C2870      C2873   1.444       .  S
C2870      C2871   1.401       .  A
C2871      C2872   1.399       .  A
C2871      H2879   1.083       .  S
C2872      H2880   1.083       .  S
C2873      C2874   1.208       .  T
C2875      C2876   1.208       .  T
C2881      C2889   1.441       .  S
C2881      C2882   1.401       .  A
C2881      C2886   1.402       .  A
C2882      C2883   1.399       .  A
C2882      H2891   1.083       .  S
C2883      C2884   1.401       .  A
C2883      H2892   1.083       .  S
C2884      C2887   1.440       .  S
C2884      C2885   1.401       .  A
C2885      C2886   1.400       .  A
C2885      H2893   1.083       .  S
C2886      H2894   1.083       .  S
C2887      C2888   1.206       .  T
C2889      C2890   1.207       .  T
C2895      C2903   1.439       .  S
C2895      C2896   1.401       .  A
C2895      C2900   1.401       .  A
C2896      C2897   1.398       .  A
C2896      H2905   1.084       .  S
C2897      C2898   1.401       .  A
C2897      H2906   1.084       .  S
C2898      C2901   1.439       .  S
C2898      C2899   1.402       .  A
C2899      C2900   1.400       .  A
C2899      H2907   1.083       .  S
C2900      H2908   1.083       .  S
C2901      C2902   1.206       .  T
C2903      C2904   1.205       .  T
C2909      C2917   1.442       .  S
C2909      C2910   1.402       .  A
C2909      C2914   1.401       .  A
C2910      C2911   1.400       .  A
C2910      H2919   1.083       .  S
C2911      C2912   1.402       .  A
C2911      H2920   1.083       .  S
C2912      C2915   1.442       .  S
C2912      C2913   1.401       .  A
C2913      C2914   1.399       .  A
C2913      H2921   1.083       .  S
C2914      H2922   1.083       .  S
C2915      C2916   1.207       .  T
C2917      C2918   1.207       .  T
C2923      C2931   1.442       .  S
C2923      C2924   1.402       .  A
C2923      C2928   1.401       .  A
C2924      C2925   1.400       .  A
C2924      H2933   1.083       .  S
C2925      C2926   1.402       .  A
C2925      H2934   1.083       .  S
C2926      C2929   1.442       .  S
C2926      C2927   1.401       .  A
C2927      C2928   1.399       .  A
C2927      H2935   1.083       .  S
C2928      H2936   1.083       .  S
C2929      C2930   1.207       .  T
C2931      C2932   1.207       .  T
C2937      C2945   1.441       .  S
C2937      C2938   1.401       .  A
C2937      C2942   1.402       .  A
C2938      C2939   1.399       .  A
C2938      H2947   1.083       .  S
C2939      C2940   1.401       .  A
C2939      H2948   1.083       .  S
C2940      C2943   1.441       .  S
C2940      C2941   1.402       .  A
C2941      C2942   1.399       .  A
C2941      H2949   1.083       .  S
C2942      H2950   1.083       .  S
C2943      C2944   1.207       .  T
C2945      C2946   1.206       .  T
C2951      C2959   1.440       .  S
C2951      C2952   1.401       .  A
C2951      C2956   1.402       .  A
C2952      C2953   1.398       .  A
C2952      H2961   1.083       .  S
C2953      C2954   1.401       .  A
C2953      H2962   1.083       .  S
C2954      C2957   1.440       .  S
C2954      C2955   1.402       .  A
C2955      C2956   1.400       .  A
C2955      H2963   1.083       .  S
C2956      H2964   1.083       .  S
C2957      C2958   1.206       .  T
C2959      C2960   1.206       .  T
C2965      C2973   1.440       .  S
C2965      C2966   1.401       .  A
C2965      C2970   1.402       .  A
C2966      C2967   1.399       .  A
C2966      H2975   1.083       .  S
C2967      C2968   1.401       .  A
C2967      H2976   1.083       .  S
C2968      C2971   1.440       .  S
C2968      C2969   1.401       .  A
C2969      C2970   1.399       .  A
C2969      H2977   1.083       .  S
C2970      H2978   1.083       .  S
C2971      C2972   1.206       .  T
C2973      C2974   1.206       .  T
C2979      C2987   1.440       .  S
C2979      C2980   1.401       .  A
C2979      C2984   1.402       .  A
C2980      C2981   1.398       .  A
C2980      H2989   1.084       .  S
C2981      C2982   1.401       .  A
C2981      H2990   1.084       .  S
C2982      C2985   1.440       .  S
C2982      C2983   1.402       .  A
C2983      C2984   1.401       .  A
C2983      H2991   1.083       .  S
C2984      H2992   1.083       .  S
C2985      C2986   1.206       .  T
C2987      C2988   1.206       .  T
C2993      C3001   1.441       .  S
C2993      C2994   1.402       .  A
C2993      C2998   1.401       .  A
C2994      C2995   1.400       .  A
C2994      H3003   1.083       .  S
C2995      C2996   1.402       .  A
C2995      H3004   1.083       .  S
C2996      C2999   1.440       .  S
C2996      C2997   1.401       .  A
C2997      C2998   1.398       .  A
C2997      H3005   1.084       .  S
C2998      H3006   1.084       .  S
C2999      C3000   1.206       .  T
C3001      C3002   1.207       .  T
C3007      C3015   1.441       .  S
C3007      C3008   1.402       .  A
C3007      C3012   1.401       .  A
C3008      C3009   1.400       .  A
C3008      H3017   1.083       .  S
C3009      C3010   1.402       .  A
C3009      H3018   1.083       .  S
C3010      C3013   1.440       .  S
C3010      C3011   1.401       .  A
C3011      C3012   1.399       .  A
C3011      H3019   1.084       .  S
C3012      H3020   1.083       .  S
C3013      C3014   1.206       .  T
C3015      C3016   1.206       .  T
C3021      C3029   1.442       .  S
C3021      C3022   1.401       .  A
C3021      C3026   1.402       .  A
C3022      C3023   1.399       .  A
C3022      H3031   1.083       .  S
C3023      C3024   1.402       .  A
C3023      H3032   1.083       .  S
C3024      C3027   1.442       .  S
C3024      C3025   1.402       .  A
C3025      C3026   1.400       .  A
C3025      H3033   1.083       .  S
C3026      H3034   1.083       .  S
C3027      C3028   1.208       .  T
C3029      C3030   1.207       .  T
C3035      C3043   1.445       .  S
C3035      C3036   1.403       .  A
C3035      C3040   1.401       .  A
C3036      C3037   1.403       .  A
C3036      H3045   1.083       .  S
C3037      C3038   1.403       .  A
C3037      H3046   1.083       .  S
C3038      C3041   1.445       .  S
C3038      C3039   1.402       .  A
C3039      C3040   1.399       .  A
C3039      H3047   1.084       .  S
C3040      H3048   1.083       .  S
C3041      C3042   1.209       .  T
C3043      C3044   1.209       .  T
