geometry optimzed in LAMMPS
_audit_creation_date              2020-11-30 
_audit_creation_method            'lammps2cif' 
_symmetry_space_group_name_H-M    'P1' 
_symmetry_Int_Tables_number       1 
_symmetry_cell_setting            triclinic 
loop_ 
_symmetry_equiv_pos_as_xyz 
  x,y,z 
_cell_length_a                    41.70786546 
_cell_length_b                    41.29503109674331 
_cell_length_c                    38.79151491540909 
_cell_angle_alpha                 89.93044167339986 
_cell_angle_beta                  89.81686667861617 
_cell_angle_gamma                 120.30680314451367 
loop_ 
_atom_site_label 
_atom_site_type_symbol 
_atom_site_fract_x 
_atom_site_fract_y 
_atom_site_fract_z 
_atom_site_charge 
C1          C  0.38444152  0.20242064  0.40780798     0.03900
C2          C  0.36762700  0.16362838  0.41515006    -0.12200
C3          C  0.33258480  0.14400593  0.43141816     0.01400
C4          C  0.31445620  0.16384390  0.44006255    -0.10700
C5          C  0.33015390  0.20210936  0.43258570     0.03900
C6          C  0.36529109  0.22123444  0.41686680    -0.10200
H7          H  0.38111843  0.14838293  0.40723994     0.09500
H8          H  0.28785566  0.14956656  0.45305640     0.07000
H9          H  0.37727114  0.25072699  0.41103505     0.06900
C10         C  0.19914272  0.39247671  0.52003737     0.03900
C11         C  0.21979019  0.37527472  0.51094073    -0.12200
C12         C  0.20376182  0.34170334  0.49186402     0.01400
C13         C  0.16629147  0.32531511  0.48190338    -0.10700
C14         C  0.14480280  0.34145313  0.49115816     0.03900
C15         C  0.16167914  0.37519245  0.50983106    -0.10200
H16         H  0.24814035  0.38739667  0.51955990     0.09500
H17         H  0.15385269  0.30028918  0.46629970     0.07000
H18         H  0.14526780  0.38772527  0.51690797     0.06900
C19         C  0.81821777  0.19293249  0.43047341     0.03900
C20         C  0.85706899  0.21293784  0.43585256    -0.12200
C21         C  0.87519145  0.19563042  0.45125171     0.01400
C22         C  0.85388723  0.15810823  0.46192507    -0.10700
C23         C  0.81537820  0.13735170  0.45658138     0.03900
C24         C  0.79786593  0.15515997  0.44126319    -0.10200
H25         H  0.87361626  0.24160883  0.42729032     0.09500
H26         H  0.86746468  0.14511989  0.47483636     0.07000
H27         H  0.76830302  0.13898139  0.43682859     0.06900
C28         C  0.83918767  0.63535688  0.41854691     0.03900
C29         C  0.87717352  0.65375594  0.42744219    -0.12200
C30         C  0.89428870  0.68871988  0.44428072     0.01400
C31         C  0.87264679  0.70502053  0.45203199    -0.10700
C32         C  0.83513027  0.68781199  0.44298755     0.03900
C33         C  0.81839774  0.65268956  0.42685617    -0.10200
H34         H  0.89355038  0.64123393  0.42042415     0.09500
H35         H  0.88493241  0.73148388  0.46545218     0.07000
H36         H  0.78934687  0.63943367  0.42035642     0.06900
C37         C  0.64275243  0.81279151  0.53564507     0.03900
C38         C  0.66108202  0.85138856  0.52807722    -0.12200
C39         C  0.69405056  0.86839359  0.50870212     0.01400
C40         C  0.70843092  0.84629798  0.49658005    -0.10700
C41         C  0.69133926  0.80791571  0.50457528     0.03900
C42         C  0.65815563  0.79131661  0.52377261    -0.10200
H43         H  0.65066775  0.86858510  0.53855643     0.09500
H44         H  0.73304589  0.85923831  0.48057628     0.07000
H45         H  0.64461048  0.76175404  0.52999072     0.06900
C46         C  0.21605907  0.82139064  0.51959905     0.03900
C47         C  0.17854487  0.80053089  0.50969622    -0.12200
C48         C  0.16183377  0.81677245  0.49080055     0.01400
C49         C  0.18288804  0.85452846  0.48113455    -0.10700
C50         C  0.22057846  0.87628538  0.49017439     0.03900
C51         C  0.23712943  0.85940437  0.50919090    -0.10200
H52         H  0.16138846  0.77163938  0.51772283     0.09500
H53         H  0.16986094  0.86672834  0.46597650     0.07000
H54         H  0.26603381  0.87612076  0.51628693     0.06900
O55         O  0.34448714  0.73513715  0.70225958    -0.81000
C56         C  0.31092916  0.59984604  0.76499985     0.98400
O57         O  0.29497624  0.61878934  0.76176258    -0.70100
O58         O  0.29335079  0.68158563  0.75469300    -0.73700
Al59       Al  0.30120681  0.65084409  0.72333033     1.49000
C60         C  0.31378339  0.70815444  0.77457648     0.93600
O61         O  0.41240343  0.72772350  0.76161104    -0.79900
O62         O  0.41739493  0.68877097  0.70001123    -0.73500
Al63       Al  0.37566609  0.72601010  0.73139988     1.90100
O64         O  0.39895516  0.66937963  0.76752643    -0.72600
O65         O  0.35530865  0.62922545  0.68029276    -0.72400
O66         O  0.33963585  0.60795978  0.74778072    -0.78100
O67         O  0.29785323  0.61431829  0.69103644    -0.76300
O68         O  0.35080394  0.67603318  0.72628265    -1.12400
O69         O  0.30111630  0.67961269  0.68478518    -0.71600
C70         C  0.31802395  0.71496005  0.68237093     0.99100
C71         C  0.41678483  0.70321644  0.77681636     0.95500
Al72       Al  0.37559618  0.65112607  0.72408567     1.55600
O73         O  0.34864622  0.72476532  0.77166649    -0.76200
C74         C  0.32113056  0.61041361  0.67334110     0.99700
C75         C  0.42478186  0.71897742  0.68537976     0.94600
O76         O  0.40601940  0.73444274  0.69177040    -0.81500
C77         C  0.83355256  0.19558811  0.03929444     0.03900
C78         C  0.86964974  0.21573772  0.02536656    -0.12200
C79         C  0.88453127  0.19805814  0.00556411     0.01400
C80         C  0.86232518  0.15955874  0.99899941    -0.10700
C81         C  0.82668544  0.13826983  0.01334145     0.03900
C82         C  0.81238814  0.15651240  0.03342104    -0.10200
H83         H  0.88657016  0.24542584  0.03019647     0.09500
H84         H  0.87259675  0.14587514  0.98235420     0.07000
H85         H  0.78527462  0.13996526  0.04500086     0.06900
C86         C  0.62563435  0.81486391  0.93719899     0.03900
C87         C  0.64288887  0.79371831  0.94411073    -0.12200
C88         C  0.67646456  0.80920596  0.96248385     0.01400
C89         C  0.69263816  0.84643235  0.97416966    -0.10700
C90         C  0.67630770  0.86826855  0.96712827     0.03900
C91         C  0.64256841  0.85203790  0.94925080    -0.10200
H92         H  0.63109818  0.76565800  0.93399542     0.09500
H93         H  0.71791551  0.85857196  0.98906794     0.07000
H94         H  0.63012761  0.86897650  0.94383845     0.06900
C95         C  0.82419071  0.63121559  0.02310229     0.03900
C96         C  0.86252337  0.64918620  0.01513154    -0.12200
C97         C  0.88091744  0.68510381  0.99995087     0.01400
C98         C  0.86039726  0.70253318  0.99198117    -0.10700
C99         C  0.82233752  0.68530699  0.99941367     0.03900
C100        C  0.80439206  0.64948694  0.01466311    -0.10200
H101        H  0.87832588  0.63578665  0.02145141     0.09500
H102        H  0.87425601  0.72990026  0.97983162     0.07000
H103        H  0.77536069  0.63670346  0.02160449     0.06900
C104        C  0.20630753  0.81995886  0.92424029     0.03900
C105        C  0.16831992  0.79796608  0.93291271    -0.12200
C106        C  0.14924179  0.81380791  0.94922978     0.01400
C107        C  0.16934070  0.85222117  0.95765412    -0.10700
C108        C  0.20711173  0.87486522  0.94908540     0.03900
C109        C  0.22530114  0.85835860  0.93247303    -0.10200
H110        H  0.15351605  0.76841564  0.92686963     0.09500
H111        H  0.15585879  0.86480542  0.97134737     0.07000
H112        H  0.25401259  0.87572053  0.92477365     0.06900
C113        C  0.40304053  0.20271485  0.02086704     0.03900
C114        C  0.38633141  0.22287525  0.00863319    -0.12200
C115        C  0.35311559  0.20505542  0.98977370     0.01400
C116        C  0.33704807  0.16669310  0.98237539    -0.10700
C117        C  0.35279769  0.14580062  0.99446095     0.03900
C118        C  0.38590029  0.16406275  0.01350005    -0.10200
H119        H  0.39875817  0.25242026  0.01434026     0.09500
H120        H  0.31235480  0.15302568  0.96665959     0.07000
H121        H  0.39736665  0.14767863  0.02363573     0.06900
C122        C  0.19849922  0.37200777  0.90633105     0.03900
C123        C  0.16063834  0.35290287  0.91530307    -0.12200
C124        C  0.14390905  0.31730728  0.93055523     0.01400
C125        C  0.16531103  0.30063213  0.93703914    -0.10700
C126        C  0.20319245  0.31879014  0.92843451     0.03900
C127        C  0.21967885  0.35470419  0.91320258    -0.10200
H128        H  0.14364104  0.36510268  0.90942960     0.09500
H129        H  0.15231554  0.27350601  0.94957235     0.07000
H130        H  0.24880485  0.36893048  0.90652778     0.06900
O131        O  0.74082974  0.40646962  0.19607357    -0.81000
C132        C  0.61331499  0.31044306  0.27150785     0.98400
O133        O  0.63010613  0.34456644  0.26285944    -0.70100
O134        O  0.69234458  0.40778340  0.25150144    -0.73700
Al135      Al  0.65951271  0.36721876  0.22260757     1.49000
C136        C  0.71998138  0.41451500  0.26979851     0.93600
O137        O  0.73972677  0.33512105  0.25773163    -0.79900
O138        O  0.69313855  0.28547061  0.20069555    -0.73500
Al139      Al  0.73423174  0.36760978  0.22673134     1.90100
O140        O  0.68339614  0.29041662  0.27012841    -0.72600
O141        O  0.63194280  0.28552140  0.18761170    -0.72400
O142        O  0.62073881  0.28765625  0.25724318    -0.78100
O143        O  0.62140443  0.33207453  0.19322551    -0.76300
O144        O  0.68433340  0.34218469  0.22599363    -1.12400
O145        O  0.68509302  0.39381468  0.18158729    -0.71600
C146        C  0.71981308  0.41252486  0.17733863     0.99100
C147        C  0.71779179  0.30739387  0.27590238     0.95500
Al148      Al  0.65954369  0.29189640  0.22865648     1.55600
O149        O  0.73646299  0.39623362  0.26586054    -0.76200
C150        C  0.61489525  0.30210786  0.17869007     0.99700
C151        C  0.72162005  0.30698212  0.18328135     0.94600
O152        O  0.73845793  0.34202546  0.18770060    -0.81500
C153        C  0.54106464  0.24945770  0.10885921     0.16700
C154        C  0.51605891  0.22371206  0.08485849    -0.32300
C155        C  0.48835729  0.23016945  0.07177327     0.21100
C156        C  0.48600345  0.26107058  0.08180860     0.03300
C157        C  0.51123665  0.28703511  0.10537443    -0.22000
C158        C  0.53858607  0.28037107  0.11873180     0.12500
S159        S  0.57537424  0.24572829  0.12937707    -0.05700
C160        C  0.58629592  0.28617345  0.15156226    -0.09100
C161        C  0.56451998  0.30158869  0.14299747    -0.25800
S162        S  0.44982251  0.26328665  0.06407003    -0.02900
C163        C  0.43704251  0.22177023  0.04277526    -0.16400
C164        C  0.46058319  0.20766866  0.04927963    -0.14400
H165        H  0.51762552  0.19932078  0.07728553     0.21000
H166        H  0.50917534  0.31100309  0.11348596     0.17000
H167        H  0.56693120  0.32657636  0.15456901     0.19500
H168        H  0.45770509  0.18223978  0.03839175     0.12900
C169        C  0.31595998  0.27028167  0.96214912     0.16700
C170        C  0.31070551  0.30030801  0.95329928    -0.32300
C171        C  0.27419413  0.29214079  0.94690259     0.21100
C172        C  0.24452505  0.25574981  0.94901554     0.03300
C173        C  0.24975308  0.22589563  0.95778340    -0.22000
C174        C  0.28603467  0.23405694  0.96435275     0.12500
S175        S  0.35766213  0.27390505  0.97174644    -0.05700
C176        C  0.33441516  0.22596576  0.97875274    -0.09100
C177        C  0.29629963  0.20871494  0.97389276    -0.25800
S178        S  0.20248363  0.25135828  0.94113621    -0.02900
C179        C  0.22452942  0.29939793  0.93533375    -0.16400
C180        C  0.26296583  0.31737151  0.93894667    -0.14400
H181        H  0.33393112  0.32874663  0.95183009     0.21000
H182        H  0.22645265  0.19752441  0.95973830     0.17000
H183        H  0.27670950  0.17918673  0.97785772     0.19500
H184        H  0.28171822  0.34731744  0.93692779     0.12900
C185        C  0.24503778  0.98017485  0.96730963     0.16700
C186        C  0.24957323  0.01566905  0.97348415    -0.32300
C187        C  0.28582132  0.04571142  0.97808861     0.21100
C188        C  0.31625006  0.04072868  0.97669394     0.03300
C189        C  0.31169136  0.00516542  0.97046022    -0.22000
C190        C  0.27537697  0.97506259  0.96580638     0.12500
S191        S  0.20338471  0.94027435  0.96117342    -0.05700
C192        C  0.22679848  0.91592145  0.95643272    -0.09100
C193        C  0.26516776  0.93836542  0.95960329    -0.25800
S194        S  0.35785387  0.08085128  0.98330697    -0.02900
C195        C  0.33404955  0.10478845  0.98777483    -0.16400
C196        C  0.29577708  0.08221564  0.98442492    -0.14400
H197        H  0.22586428  0.01969213  0.97467694     0.21000
H198        H  0.33538554  0.00112517  0.96934109     0.17000
H199        H  0.28472522  0.92849938  0.95793364     0.19500
H200        H  0.27604131  0.09180082  0.98695910     0.12900
C201        C  0.77902776  0.49758065  0.11893392     0.16700
C202        C  0.80810618  0.53010159  0.10393456    -0.32300
C203        C  0.79894258  0.54933724  0.07977588     0.21100
C204        C  0.76242337  0.53658494  0.07063548     0.03300
C205        C  0.73317462  0.50383576  0.08559853    -0.22000
C206        C  0.74233989  0.48474565  0.11017092     0.12500
S207        S  0.78478485  0.47156645  0.14972806    -0.05700
C208        C  0.73718912  0.44303277  0.15150505    -0.09100
C209        C  0.71803859  0.45329279  0.12885648    -0.25800
S210        S  0.75737901  0.56493147  0.04167550    -0.02900
C211        C  0.80509337  0.59465672  0.04206660    -0.16400
C212        C  0.82340669  0.58234012  0.06357925    -0.14400
H213        H  0.83667131  0.54035225  0.11125948     0.21000
H214        H  0.70455577  0.49409715  0.07887551     0.17000
H215        H  0.68808956  0.43908881  0.12674221     0.19500
H216        H  0.85299262  0.59732008  0.06833113     0.12900
C217        C  0.98588116  0.75248897  0.98589103     0.16700
C218        C  0.02131005  0.78399678  0.98195489    -0.32300
C219        C  0.05026777  0.77813132  0.97196843     0.21100
C220        C  0.04438812  0.74249544  0.96617466     0.03300
C221        C  0.00874374  0.71074916  0.97010345    -0.22000
C222        C  0.97959821  0.71662961  0.98014252     0.12500
S223        S  0.94739117  0.75431137  0.99720337    -0.05700
C224        C  0.92181169  0.70604697  0.99403528    -0.09100
C225        C  0.94281721  0.68971506  0.98500666    -0.25800
S226        S  0.08362121  0.74197148  0.95408369    -0.02900
C227        C  0.10846981  0.79049882  0.95697941    -0.16400
C228        C  0.08645059  0.80551594  0.96662133    -0.14400
H229        H  0.02607778  0.81198322  0.98635507     0.21000
H230        H  0.00393458  0.68280020  0.96543650     0.17000
H231        H  0.93170228  0.65994189  0.98138994     0.19500
H232        H  0.09575055  0.83500595  0.96921518     0.12900
C233        C  0.71323194  0.74037867  0.97439827     0.16700
C234        C  0.71808120  0.70917277  0.97686642    -0.32300
C235        C  0.75407472  0.71591726  0.98334087     0.21100
C236        C  0.78378746  0.75208283  0.98701362     0.07100
C237        C  0.77894615  0.78316744  0.98448963    -0.22000
C238        C  0.74304355  0.77642699  0.97815694     0.12500
S239        S  0.67205075  0.73850232  0.96650833    -0.05700
C240        C  0.69519846  0.78698322  0.96827752    -0.09100
C241        C  0.73301719  0.80312809  0.97466006    -0.25800
S242        S  0.82513336  0.75462290  0.99480727    -0.02900
C243        C  0.80245758  0.70623715  0.99332103    -0.16400
C244        C  0.76456733  0.68944082  0.98694769    -0.14400
H245        H  0.69485479  0.68093004  0.97391795     0.21000
H246        H  0.80218548  0.81142106  0.98737937     0.17000
H247        H  0.75265686  0.83291870  0.97593086     0.19500
H248        H  0.74568563  0.65952555  0.98484498     0.12900
C249        C  0.74433500  0.24749038  0.12399320     0.16700
C250        C  0.74412035  0.21802315  0.10603031    -0.32300
C251        C  0.77724791  0.22511988  0.09019599     0.21100
C252        C  0.80909521  0.26001708  0.09205254     0.03300
C253        C  0.80927211  0.28973035  0.10971078    -0.22000
C254        C  0.77611008  0.28260840  0.12565812     0.12500
S255        S  0.70749091  0.24359300  0.14646451    -0.05700
C256        C  0.73502569  0.28980532  0.15832140    -0.09100
C257        C  0.77084401  0.30728842  0.14513813    -0.25800
S258        S  0.84644892  0.26251924  0.07170236    -0.02900
C259        C  0.81898650  0.21582243  0.06019918    -0.16400
C260        C  0.78256638  0.19979048  0.07199428    -0.14400
H261        H  0.71934489  0.19058510  0.10489998     0.21000
H262        H  0.83422740  0.31698338  0.11131273     0.17000
H263        H  0.79217164  0.33587939  0.15062961     0.19500
H264        H  0.76068262  0.17125433  0.06755446     0.12900
C265        C  0.04080887  0.25220168  0.95220343     0.16700
C266        C  0.00560559  0.22158411  0.95913675    -0.32300
C267        C  0.97853003  0.22909358  0.97158501     0.21100
C268        C  0.98592441  0.26539648  0.97667008     0.03300
C269        C  0.02122402  0.29615626  0.96969290    -0.22000
C270        C  0.04846123  0.28862692  0.95742950     0.12500
S271        S  0.07753605  0.24868444  0.93800900    -0.05700
C272        C  0.10391588  0.29694578  0.93932211    -0.09100
C273        C  0.08465581  0.31450223  0.94996210    -0.25800
S274        S  0.94923192  0.26816488  0.99251363    -0.02900
C275        C  0.92346642  0.21965205  0.99255083    -0.16400
C276        C  0.94311815  0.20289551  0.98070354    -0.14400
H277        H  0.99968945  0.19309914  0.95538092     0.21000
H278        H  0.02729464  0.32461187  0.97398146     0.17000
H279        H  0.09665817  0.34448667  0.95296507     0.19500
H280        H  0.93285580  0.17309022  0.97956781     0.12900
C281        C  0.78598420  0.03271397  0.99561505     0.16700
C282        C  0.78078670  0.99740271  0.98742824    -0.32300
C283        C  0.74427144  0.96739918  0.98534906     0.21100
C284        C  0.71414646  0.97223790  0.99106718     0.03300
C285        C  0.71937156  0.00771277  0.99934226    -0.22000
C286        C  0.75605965  0.03785194  0.00146852     0.12500
S287        S  0.82814471  0.07239993  0.99873523    -0.05700
C288        C  0.80567076  0.09693975  0.00780343    -0.09100
C289        C  0.76713468  0.07465245  0.00862749    -0.25800
S290        S  0.67208470  0.93214851  0.98638201    -0.02900
C291        C  0.69542237  0.90856186  0.97679519    -0.16400
C292        C  0.73380563  0.93114691  0.97725790    -0.14400
H293        H  0.80423617  0.99352546  0.98268309     0.21000
H294        H  0.69592608  0.01168277  0.00367855     0.17000
H295        H  0.74814688  0.08480646  0.01336402     0.19500
H296        H  0.75320104  0.92183702  0.97108479     0.12900
C297        C  0.28588649  0.51231112  0.81847600     0.16700
C298        C  0.28417389  0.48026514  0.83249857    -0.32300
C299        C  0.25454586  0.45806431  0.85464168     0.21100
C300        C  0.22803475  0.46760690  0.86287389     0.03300
C301        C  0.22981171  0.49990802  0.84893893    -0.22000
C302        C  0.25927961  0.52193734  0.82630301     0.12500
S303        S  0.31896532  0.54161386  0.79014884    -0.05700
C304        C  0.29678604  0.56724284  0.78823077    -0.09100
C305        C  0.26538788  0.55367614  0.80893203    -0.25800
S306        S  0.19373581  0.43613658  0.88937101    -0.02900
C307        C  0.21496555  0.40929958  0.88898136    -0.16400
C308        C  0.24735520  0.42492261  0.86944031    -0.14400
H309        H  0.30472262  0.47259262  0.82590535     0.21000
H310        H  0.20881361  0.50712319  0.85495558     0.17000
H311        H  0.24783573  0.56595344  0.81077235     0.19500
H312        H  0.26426752  0.41229222  0.86501120     0.12900
C313        C  0.54270675  0.78977470  0.87682538     0.16700
C314        C  0.51757682  0.79065912  0.85360287    -0.32300
C315        C  0.49080932  0.75661425  0.83913941     0.21100
C316        C  0.48873313  0.72298409  0.84760879     0.03300
C317        C  0.51367637  0.72206492  0.87128401    -0.22000
C318        C  0.54083288  0.75632608  0.88549764     0.12500
S319        S  0.57828493  0.82835757  0.89558428    -0.05700
C320        C  0.59153917  0.79950842  0.91551013    -0.09100
C321        C  0.56854088  0.76161981  0.90783357    -0.25800
S322        S  0.45514220  0.68506455  0.82571716    -0.02900
C323        C  0.44414454  0.71507347  0.80485647    -0.16400
C324        C  0.46525670  0.75223369  0.81486496    -0.14400
H325        H  0.51933032  0.81688411  0.84652344     0.21000
H326        H  0.51251155  0.69597393  0.87773165     0.17000
H327        H  0.57177632  0.73892835  0.91768045     0.19500
H328        H  0.46277772  0.77511528  0.80417687     0.12900
C329        C  0.26932129  0.78930291  0.87798844     0.16700
C330        C  0.29886447  0.78671436  0.86342859    -0.32300
C331        C  0.29003466  0.75740226  0.84006899     0.21100
C332        C  0.25342807  0.73169075  0.83202308     0.03300
C333        C  0.22404983  0.73419344  0.84668347    -0.22000
C334        C  0.23286808  0.76364619  0.86963088     0.12500
S335        S  0.27387326  0.82363113  0.90551173    -0.05700
C336        C  0.22601335  0.80344174  0.90554598    -0.09100
C337        C  0.20804501  0.77147771  0.88523872    -0.25800
S338        S  0.24814156  0.69907391  0.80231186    -0.02900
C339        C  0.29581075  0.72029947  0.80015779    -0.16400
C340        C  0.31463324  0.75095550  0.82184343    -0.14400
H341        H  0.32742810  0.80705020  0.86949548     0.21000
H342        H  0.19551763  0.71442855  0.83994312     0.17000
H343        H  0.17840559  0.75531184  0.88093869     0.19500
H344        H  0.34456543  0.76819777  0.82339853     0.12900
C345        C  0.29946865  0.77655042  0.62066917     0.16700
C346        C  0.29987630  0.80604942  0.60215899    -0.32300
C347        C  0.27013984  0.79702554  0.57974038     0.21100
C348        C  0.24160030  0.76031102  0.57598146     0.03300
C349        C  0.24118460  0.73092204  0.59437932    -0.22000
C350        C  0.27071408  0.73987734  0.61676971     0.12500
S351        S  0.33225282  0.78150481  0.64976134    -0.05700
C352        C  0.30687219  0.73365330  0.65666777    -0.09100
C353        C  0.27483060  0.71512221  0.63723992    -0.25800
S354        S  0.20781403  0.75488552  0.54835395    -0.02900
C355        C  0.23167057  0.80290303  0.54160740    -0.16400
C356        C  0.26473637  0.82165001  0.56007157    -0.14400
H357        H  0.32215523  0.83473715  0.60534656     0.21000
H358        H  0.21860986  0.70231025  0.59156283     0.17000
H359        H  0.25527314  0.68525847  0.63846239     0.19500
H360        H  0.28343421  0.85167195  0.56007390     0.12900
C361        C  0.56052472  0.75976142  0.59836446     0.16700
C362        C  0.53521403  0.73565925  0.62302900    -0.32300
C363        C  0.50687798  0.74232329  0.63331039     0.21100
C364        C  0.50371008  0.77169285  0.61984351     0.03300
C365        C  0.52907158  0.79582377  0.59500689    -0.22000
C366        C  0.55749996  0.78909833  0.58465067     0.12500
S367        S  0.59706879  0.75651300  0.58298020    -0.05700
C368        C  0.60894199  0.79539500  0.55769740    -0.09100
C369        C  0.58507388  0.80954798  0.56117905    -0.25800
S370        S  0.46724439  0.77488305  0.63624737    -0.02900
C371        C  0.45622306  0.73603485  0.66116509    -0.16400
C372        C  0.47977964  0.72182598  0.65690603    -0.14400
H373        H  0.53755023  0.71273705  0.63381482     0.21000
H374        H  0.52684932  0.81885345  0.58434359     0.17000
H375        H  0.58760180  0.83351215  0.54735239     0.19500
H376        H  0.47728508  0.69772361  0.67050637     0.12900
C377        C  0.74574514  0.49822582  0.32894908     0.16700
C378        C  0.74855360  0.52975052  0.34525794    -0.32300
C379        C  0.77973019  0.55119207  0.36588394     0.21100
C380        C  0.80666557  0.54143824  0.37057063     0.03300
C381        C  0.80373104  0.50962254  0.35447909    -0.22000
C382        C  0.77275811  0.48842828  0.33337731     0.12500
S383        S  0.71118225  0.47016475  0.30126890    -0.05700
C384        C  0.73341239  0.44501516  0.29516925    -0.09100
C385        C  0.76573397  0.45768903  0.31410406    -0.25800
S386        S  0.84289341  0.57209576  0.39563447    -0.02900
C387        C  0.82184774  0.59889357  0.39962669    -0.16400
C388        C  0.78813947  0.58382715  0.38231858    -0.14400
H389        H  0.72776135  0.53773723  0.34137508     0.21000
H390        H  0.82503843  0.50222620  0.35762444     0.17000
H391        H  0.78364882  0.44577642  0.31302684     0.19500
H392        H  0.77087714  0.59636882  0.38054202     0.12900
C393        C  0.72575620  0.73976263  0.47907303     0.16700
C394        C  0.73020862  0.70889335  0.47194542    -0.32300
C395        C  0.76598835  0.71626353  0.46301874     0.21100
C396        C  0.79569895  0.75267504  0.46104392     0.03300
C397        C  0.79123587  0.78332749  0.46807924    -0.22000
C398        C  0.75573186  0.77596763  0.47724466     0.12500
S399        S  0.68514428  0.73735393  0.49121330    -0.05700
C400        C  0.70893509  0.78580293  0.49383817    -0.09100
C401        C  0.74646042  0.80225080  0.48581211    -0.25800
S402        S  0.83693727  0.75617781  0.45075766    -0.02900
C403        C  0.81448560  0.70782312  0.44960857    -0.16400
C404        C  0.77654078  0.69028852  0.45627401    -0.14400
H405        H  0.70699065  0.68046816  0.47369323     0.21000
H406        H  0.81458353  0.81173866  0.46687842     0.17000
H407        H  0.76655616  0.83193024  0.48689888     0.19500
H408        H  0.75787523  0.66024590  0.45723867     0.12900
C409        C  0.99723127  0.75511615  0.46858100     0.16700
C410        C  0.03136892  0.78589290  0.47802911    -0.32300
C411        C  0.06242408  0.78140820  0.47750584     0.21100
C412        C  0.05958884  0.74757121  0.46851715     0.03300
C413        C  0.02525282  0.71662996  0.45916693    -0.22000
C414        C  0.99415033  0.72131074  0.45925719     0.12500
S415        S  0.95687199  0.75561734  0.46673796    -0.05700
C416        C  0.93474532  0.70951384  0.45293443    -0.09100
C417        C  0.95843615  0.69497749  0.45033594    -0.25800
S418        S  0.10068830  0.74794942  0.47004240    -0.02900
C419        C  0.12188713  0.79436615  0.48245308    -0.16400
C420        C  0.09802448  0.80835984  0.48534227    -0.14400
H421        H  0.03367931  0.81234290  0.48515830     0.21000
H422        H  0.02294414  0.69021682  0.45192256     0.17000
H423        H  0.95040815  0.66680285  0.44240306     0.19500
H424        H  0.10618803  0.83659101  0.49338787     0.12900
C425        C  0.77343962  0.28550015  0.34101656     0.16700
C426        C  0.80177606  0.28482435  0.35974418    -0.32300
C427        C  0.79242535  0.25267843  0.37932859     0.21100
C428        C  0.75633502  0.22286646  0.38078039     0.03300
C429        C  0.72774618  0.22374411  0.36248880    -0.22000
C430        C  0.73723314  0.25564946  0.34231544     0.12500
S431        S  0.78004006  0.32060847  0.31358091    -0.05700
C432        C  0.73355857  0.29487299  0.30333458    -0.09100
C433        C  0.71404569  0.26097348  0.32086525    -0.25800
S434        S  0.75136235  0.18574711  0.40439623    -0.02900
C435        C  0.79879621  0.21012568  0.41202302    -0.16400
C436        C  0.81671864  0.24581730  0.39724651    -0.14400
H437        H  0.83015327  0.30785914  0.35818499     0.21000
H438        H  0.69963208  0.20013065  0.36308472     0.17000
H439        H  0.68490258  0.24076288  0.31714715     0.19500
H440        H  0.84617243  0.26566719  0.39818222     0.12900
C441        C  0.74812611  0.03323576  0.48029940     0.16700
C442        C  0.71754089  0.99783109  0.48808265    -0.32300
C443        C  0.72422980  0.96804531  0.49292108     0.21100
C444        C  0.75973627  0.97340068  0.49028705     0.03300
C445        C  0.79017763  0.00866812  0.48255451    -0.22000
C446        C  0.78348035  0.03829732  0.47755466     0.12500
S447        S  0.74617773  0.07297615  0.47287629    -0.05700
C448        C  0.79368194  0.09682813  0.46599164    -0.09100
C449        C  0.80953391  0.07437136  0.46924773    -0.25800
S450        S  0.76226821  0.93397815  0.49637062    -0.02900
C451        C  0.71472424  0.90941591  0.50217625    -0.16400
C452        C  0.69822743  0.93137135  0.49988158    -0.14400
H453        H  0.68978297  0.99362939  0.48999485     0.21000
H454        H  0.81788075  0.01277691  0.48025102     0.17000
H455        H  0.83852888  0.08345303  0.46505159     0.19500
H456        H  0.66875194  0.92102215  0.50231409     0.12900
C457        C  0.29641284  0.53516763  0.60327591     0.16700
C458        C  0.29559899  0.50900038  0.57957087    -0.32300
C459        C  0.26065690  0.48040355  0.56814411     0.21100
C460        C  0.22816740  0.47832572  0.57950090     0.03300
C461        C  0.22897624  0.50464939  0.60275293    -0.22000
C462        C  0.26372960  0.53286726  0.61444263     0.12500
S463        S  0.33555292  0.57056760  0.62221478    -0.05700
C464        C  0.30740990  0.58208827  0.64554275    -0.09100
C465        C  0.26985551  0.55971325  0.63840138    -0.25800
S466        S  0.18866336  0.44112094  0.56370818    -0.02900
C467        C  0.21577816  0.42743745  0.54135335    -0.16400
C468        C  0.25381454  0.45149261  0.54615522    -0.14400
H469        H  0.32099025  0.51036065  0.57102089     0.21000
H470        H  0.20352440  0.50274418  0.61192281     0.17000
H471        H  0.24794379  0.56211532  0.65101649     0.19500
H472        H  0.27556863  0.44826422  0.53436830     0.12900
C473        C  0.04114354  0.30539384  0.47097050     0.16700
C474        C  0.00584043  0.30108932  0.46603464    -0.32300
C475        C  0.97567349  0.26453944  0.46175599     0.21100
C476        C  0.98059406  0.23377881  0.46208164     0.03300
C477        C  0.01588041  0.23809375  0.46672612    -0.22000
C478        C  0.04594526  0.27456614  0.47129516     0.12500
S479        S  0.08094747  0.34706195  0.47828587    -0.05700
C480        C  0.10458873  0.32282498  0.48207924    -0.09100
C481        C  0.08210763  0.28430090  0.47749832    -0.25800
S482        S  0.94059919  0.19182652  0.45742200    -0.02900
C483        C  0.91641432  0.21564086  0.45520296    -0.16400
C484        C  0.93901577  0.25439963  0.45771012    -0.14400
H485        H  0.00196921  0.32512042  0.46610204     0.21000
H486        H  0.01963910  0.21399304  0.46730955     0.17000
H487        H  0.09130149  0.26412145  0.47974695     0.19500
H488        H  0.92922908  0.27418864  0.45744833     0.12900
C489        C  0.53395406  0.25702437  0.33614162     0.16700
C490        C  0.50587192  0.22936651  0.35690869    -0.32300
C491        C  0.47648406  0.23466714  0.36686908     0.21100
C492        C  0.47542138  0.26633747  0.35700157     0.03300
C493        C  0.50393553  0.29444793  0.33687183    -0.22000
C494        C  0.53311870  0.28895904  0.32654493     0.12500
S495        S  0.56972247  0.25380328  0.31848659    -0.05700
C496        C  0.58376315  0.29589576  0.29783755    -0.09100
C497        C  0.56203826  0.31173865  0.30493484    -0.25800
S498        S  0.43657557  0.26658766  0.37033192    -0.02900
C499        C  0.42110176  0.22330173  0.38959382    -0.16400
C500        C  0.44573120  0.21008618  0.38567783    -0.14400
H501        H  0.50629658  0.20422716  0.36405304     0.21000
H502        H  0.50286191  0.31898909  0.32878588     0.17000
H503        H  0.56590594  0.33734009  0.29332561     0.19500
H504        H  0.44167463  0.18387552  0.39583631     0.12900
C505        C  0.28531523  0.98015567  0.46308456     0.16700
C506        C  0.31471544  0.01571003  0.45316406    -0.32300
C507        C  0.30675019  0.04481334  0.44868233     0.21100
C508        C  0.27113715  0.03847952  0.45361707     0.03300
C509        C  0.24193985  0.00317052  0.46330258    -0.22000
C510        C  0.24988924  0.97436041  0.46797709     0.12500
S511        S  0.28866787  0.94103574  0.47076469    -0.05700
C512        C  0.24172712  0.91673877  0.48047181    -0.09100
C513        C  0.22501752  0.93842948  0.47791370    -0.25800
S514        S  0.26676887  0.07683761  0.44776615    -0.02900
C515        C  0.31378771  0.10279860  0.43881952    -0.16400
C516        C  0.33141467  0.08167281  0.44007252    -0.14400
H517        H  0.34254294  0.02055565  0.44946648     0.21000
H518        H  0.21418643  0.99843502  0.46735835     0.17000
H519        H  0.19609308  0.92865022  0.48352652     0.19500
H520        H  0.36076433  0.09261950  0.43581409     0.12900
C521        C  0.26262464  0.23833492  0.45094924     0.16700
C522        C  0.23143872  0.24207405  0.45649297    -0.32300
C523        C  0.23750365  0.27736059  0.46640878     0.21100
C524        C  0.27302213  0.30764623  0.47053870     0.03300
C525        C  0.30431651  0.30394332  0.46491040    -0.22000
C526        C  0.29824567  0.26855569  0.45503051     0.12500
S527        S  0.26088202  0.19766133  0.43950961    -0.05700
C528        C  0.30883242  0.22128317  0.44027312    -0.09100
C529        C  0.32491684  0.25903076  0.44878997    -0.25800
S530        S  0.27419544  0.34788577  0.48302432    -0.02900
C531        C  0.22611883  0.32378686  0.48269663    -0.16400
C532        C  0.21063495  0.28628507  0.47337871    -0.14400
H533        H  0.20360524  0.21840644  0.45340797     0.21000
H534        H  0.33213826  0.32753429  0.46826493     0.17000
H535        H  0.35447666  0.27834156  0.45102942     0.19500
H536        H  0.18123022  0.26606764  0.47226953     0.12900
loop_ 
_geom_bond_atom_site_label_1 
_geom_bond_atom_site_label_2 
_geom_bond_distance 
_geom_bond_site_symmetry_2 
_ccdc_geom_bond_type 
C1            C2   1.415       .  A
C1            C6   1.411       .  A
C1          C499   1.497       .  S
C2            C3   1.410       .  A
C2            H7   1.079       .  S
C3            C4   1.407       .  A
C3          C515   1.498       .  S
C4            C5   1.401       .  A
C4            H8   1.081       .  S
C5            C6   1.403       .  A
C5          C528   1.489       .  S
C6            H9   1.081       .  S
C10          C11   1.410       .  A
C10          C15   1.410       .  A
C10         C467   1.498       .  S
C11          C12   1.410       .  A
C11          H16   1.080       .  S
C12          C13   1.410       .  A
C12         C531   1.496       .  S
C13          C14   1.406       .  A
C13          H17   1.080       .  S
C14          C15   1.406       .  A
C14         C480   1.494       .  S
C15          H18   1.081       .  S
C19          C20   1.415       .  A
C19          C24   1.410       .  A
C19         C435   1.502       .  S
C20          C21   1.409       .  A
C20          H25   1.078       .  S
C21          C22   1.403       .  A
C21         C483   1.493       .  S
C22          C23   1.404       .  A
C22          H26   1.080       .  S
C23          C24   1.404       .  A
C23         C448   1.490       .  S
C24          H27   1.080       .  S
C28          C29   1.413       .  A
C28          C33   1.412       .  A
C28         C387   1.495       .  S
C29          C30   1.409       .  A
C29          H34   1.079       .  S
C30          C31   1.404       .  A
C30         C416   1.496       .  S
C31          C32   1.399       .  A
C31          H35   1.080       .  S
C32          C33   1.402       .  A
C32         C403   1.486       .  S
C33          H36   1.079       .  S
C37          C38   1.407       .  A
C37          C42   1.409       .  A
C37         C368   1.485       .  S
C38          C39   1.402       .  A
C38          H43   1.081       .  S
C39          C40   1.402       .  A
C39         C451   1.483       .  S
C40          C41   1.405       .  A
C40          H44   1.080       .  S
C41          C42   1.405       .  A
C41         C400   1.490       .  S
C42          H45   1.082       .  S
C46          C47   1.408       .  A
C46          C51   1.415       .  A
C46         C355   1.496       .  S
C47          C48   1.395       .  A
C47          H52   1.081       .  S
C48          C49   1.399       .  A
C48         C419   1.478       .  S
C49          C50   1.407       .  A
C49          H53   1.083       .  S
C50          C51   1.412       .  A
C50         C512   1.490       .  S
C51          H54   1.081       .  S
O55          C70   1.260       .  A
O55         Al63   1.901       .  S
C56         C304   1.471       .  S
C56          O66   1.258       .  A
C56          O57   1.263       .  A
O57         Al59   1.920       .  S
O58          C60   1.260       .  A
O58         Al59   1.903       .  S
Al59         O67   1.912       .  S
Al59         O69   1.910       .  S
Al59         O68   1.790       .  S
C60         C339   1.474       .  S
C60          O73   1.261       .  A
O61          C71   1.261       .  A
O61         Al63   1.905       .  S
O62          C75   1.258       .  A
O62         Al72   1.892       .  S
Al63         O76   1.905       .  S
Al63         O73   1.909       .  S
Al63         O68   1.793       .  S
O64          C71   1.261       .  A
O64         Al72   1.905       .  S
O65          C74   1.262       .  A
O65         Al72   1.913       .  S
O66         Al72   1.887       .  S
O67          C74   1.262       .  A
O68         Al72   1.791       .  S
O69          C70   1.264       .  A
C70         C352   1.473       .  S
C71         C323   1.473       .  S
C74         C464   1.480       .  S
C75         C371   1.468       .  S
C75          O76   1.259       .  A
C77          C78   1.407       .  A
C77          C82   1.414       .  A
C77         C259   1.495       .  S
C78          C79   1.401       .  A
C78          H83   1.079       .  S
C79          C80   1.402   1_554  A
C79         C275   1.490   1_554  S
C80          C81   1.402   1_556  A
C80          H84   1.079       .  S
C81          C82   1.408       .  A
C81         C288   1.490       .  S
C82          H85   1.079       .  S
C86          C87   1.410       .  A
C86          C91   1.408       .  A
C86         C320   1.494       .  S
C87          C88   1.408       .  A
C87          H92   1.080       .  S
C88          C89   1.407       .  A
C88         C240   1.492       .  S
C89          C90   1.404       .  A
C89          H93   1.081       .  S
C90          C91   1.402       .  A
C90         C291   1.486       .  S
C91          H94   1.081       .  S
C95          C96   1.415       .  A
C95         C100   1.410       .  A
C95         C211   1.495       .  S
C96          C97   1.408   1_554  A
C96         H101   1.081       .  S
C97          C98   1.403       .  A
C97         C224   1.489       .  S
C98          C99   1.402       .  A
C98         H102   1.082       .  S
C99         C100   1.406   1_556  A
C99         C243   1.488       .  S
C100        H103   1.082       .  S
C104        C105   1.411       .  A
C104        C109   1.407       .  A
C104        C336   1.493       .  S
C105        C106   1.409       .  A
C105        H110   1.080       .  S
C106        C107   1.410       .  A
C106        C227   1.501       .  S
C107        C108   1.406       .  A
C107        H111   1.078       .  S
C108        C109   1.405       .  A
C108        C192   1.492       .  S
C109        H112   1.081       .  S
C113        C114   1.411       .  A
C113        C118   1.411       .  A
C113        C163   1.495       .  S
C114        C115   1.405   1_554  A
C114        H119   1.081       .  S
C115        C116   1.404       .  A
C115        C176   1.489       .  S
C116        C117   1.403       .  A
C116        H120   1.081       .  S
C117        C118   1.406   1_556  A
C117        C195   1.488       .  S
C118        H121   1.081       .  S
C122        C123   1.406       .  A
C122        C127   1.414       .  A
C122        C307   1.491       .  S
C123        C124   1.399       .  A
C123        H128   1.081       .  S
C124        C125   1.398       .  A
C124        C272   1.478       .  S
C125        C126   1.404       .  A
C125        H129   1.081       .  S
C126        C127   1.410       .  A
C126        C179   1.492       .  S
C127        H130   1.079       .  S
O131        C146   1.259       .  A
O131       Al139   1.901       .  S
C132        C496   1.472       .  S
C132        O142   1.258       .  A
C132        O133   1.261       .  A
O133       Al135   1.909       .  S
O134        C136   1.262       .  A
O134       Al135   1.907       .  S
Al135       O143   1.902       .  S
Al135       O145   1.918       .  S
Al135       O144   1.800       .  S
C136        C384   1.471       .  S
C136        O149   1.261       .  A
O137        C147   1.258       .  A
O137       Al139   1.899       .  S
O138        C151   1.259       .  A
O138       Al148   1.891       .  S
Al139       O152   1.905       .  S
Al139       O149   1.898       .  S
Al139       O144   1.797       .  S
O140        C147   1.260       .  A
O140       Al148   1.911       .  S
O141        C150   1.260       .  A
O141       Al148   1.907       .  S
O142       Al148   1.893       .  S
O143        C150   1.260       .  A
O144       Al148   1.796       .  S
O145        C146   1.261       .  A
C146        C208   1.479       .  S
C147        C432   1.476       .  S
C150        C160   1.477       .  S
C151        C256   1.467       .  S
C151        O152   1.262       .  A
C153        C158   1.386       .  A
C153        C154   1.405       .  A
C153        S159   1.713       .  A
C154        C155   1.406       .  A
C154        H165   1.083       .  S
C155        C164   1.374       .  A
C155        C156   1.385       .  A
C156        C157   1.401       .  A
C156        S162   1.704       .  A
C157        C158   1.402       .  A
C157        H166   1.083       .  S
C158        C161   1.370       .  A
S159        C160   1.725       .  A
C160        C161   1.388       .  A
C161        H167   1.083       .  S
S162        C163   1.729       .  A
C163        C164   1.395       .  A
C164        H168   1.082       .  S
C169        C174   1.385       .  A
C169        C170   1.406       .  A
C169        S175   1.711       .  A
C170        C171   1.407       .  A
C170        H181   1.083       .  S
C171        C180   1.376       .  A
C171        C172   1.385       .  A
C172        C173   1.398       .  A
C172        S178   1.698       .  A
C173        C174   1.399       .  A
C173        H182   1.083       .  S
C174        C177   1.367       .  A
S175        C176   1.730       .  A
C176        C177   1.389       .  A
C177        H183   1.082       .  S
S178        C179   1.729       .  A
C179        C180   1.393       .  A
C180        H184   1.082       .  S
C185        C190   1.385       .  A
C185        C186   1.401   1_565  A
C185        S191   1.704       .  A
C186        C187   1.402       .  A
C186        H197   1.083       .  S
C187        C196   1.369       .  A
C187        C188   1.385       .  A
C188        C189   1.404       .  A
C188        S194   1.710       .  A
C189        C190   1.405   1_545  A
C189        H198   1.083       .  S
C190        C193   1.373       .  A
S191        C192   1.729       .  A
C192        C193   1.393       .  A
C193        H199   1.082       .  S
S194        C195   1.727       .  A
C195        C196   1.391       .  A
C196        H200   1.083       .  S
C201        C206   1.387       .  A
C201        C202   1.401       .  A
C201        S207   1.702       .  A
C202        C203   1.401       .  A
C202        H213   1.083       .  S
C203        C212   1.372       .  A
C203        C204   1.385       .  A
C204        C205   1.408       .  A
C204        S210   1.710       .  A
C205        C206   1.407       .  A
C205        H214   1.083       .  S
C206        C209   1.380       .  A
S207        C208   1.724       .  A
C208        C209   1.391       .  A
C209        H215   1.083       .  S
S210        C211   1.733       .  A
C211        C212   1.391       .  A
C212        H216   1.082       .  S
C217        C222   1.386       .  A
C217        C218   1.399   1_655  A
C217        S223   1.701       .  A
C218        C219   1.400       .  A
C218        H229   1.083       .  S
C219        C228   1.369       .  A
C219        C220   1.383       .  A
C220        C221   1.408       .  A
C220        S226   1.711       .  A
C221        C222   1.408   1_455  A
C221        H230   1.083       .  S
C222        C225   1.379       .  A
S223        C224   1.727       .  A
C224        C225   1.393       .  A
C225        H231   1.083       .  S
S226        C227   1.734       .  A
C227        C228   1.393       .  A
C228        H232   1.080       .  S
C233        C238   1.385       .  A
C233        C234   1.405       .  A
C233        S239   1.708       .  A
C234        C235   1.405       .  A
C234        H245   1.083       .  S
C235        C244   1.375       .  A
C235        C236   1.386       .  A
C236        C237   1.400       .  A
C236        S242   1.702       .  A
C237        C238   1.401       .  A
C237        H246   1.083       .  S
C238        C241   1.369       .  A
S239        C240   1.731       .  A
C240        C241   1.391       .  A
C241        H247   1.082       .  S
S242        C243   1.727       .  A
C243        C244   1.391       .  A
C244        H248   1.082       .  S
C249        C254   1.387       .  A
C249        C250   1.399       .  A
C249        S255   1.700       .  A
C250        C251   1.399       .  A
C250        H261   1.083       .  S
C251        C260   1.370       .  A
C251        C252   1.384       .  A
C252        C253   1.403       .  A
C252        S258   1.700       .  A
C253        C254   1.402       .  A
C253        H262   1.083       .  S
C254        C257   1.373       .  A
S255        C256   1.722       .  A
C256        C257   1.386       .  A
C257        H263   1.083       .  S
S258        C259   1.734       .  A
C259        C260   1.391       .  A
C260        H264   1.080       .  S
C265        C270   1.386       .  A
C265        C266   1.396       .  A
C265        S271   1.700       .  A
C266        C267   1.398   1_455  A
C266        H277   1.083   1_455  S
C267        C276   1.364       .  A
C267        C268   1.384       .  A
C268        C269   1.401   1_655  A
C268        S274   1.704       .  A
C269        C270   1.402       .  A
C269        H278   1.083       .  S
C270        C273   1.369       .  A
S271        C272   1.724       .  A
C272        C273   1.388       .  A
C273        H279   1.083       .  S
S274        C275   1.731       .  A
C275        C276   1.390       .  A
C276        H280   1.081       .  S
C281        C286   1.386   1_556  A
C281        C282   1.399   1_545  A
C281        S287   1.699       .  A
C282        C283   1.399       .  A
C282        H293   1.083       .  S
C283        C292   1.368       .  A
C283        C284   1.385       .  A
C284        C285   1.406   1_565  A
C284        S290   1.710       .  A
C285        C286   1.406   1_556  A
C285        H294   1.083   1_556  S
C286        C289   1.376       .  A
S287        C288   1.728   1_556  A
C288        C289   1.392       .  A
C289        H295   1.082       .  S
S290        C291   1.729       .  A
C291        C292   1.388       .  A
C292        H296   1.083       .  S
C297        C302   1.387       .  A
C297        C298   1.398       .  A
C297        S303   1.696       .  A
C298        C299   1.398       .  A
C298        H309   1.083       .  S
C299        C308   1.369       .  A
C299        C300   1.385       .  A
C300        C301   1.405       .  A
C300        S306   1.704       .  A
C301        C302   1.404       .  A
C301        H310   1.083       .  S
C302        C305   1.377       .  A
S303        C304   1.723       .  A
C304        C305   1.388       .  A
C305        H311   1.083       .  S
S306        C307   1.733       .  A
C307        C308   1.389       .  A
C308        H312   1.082       .  S
C313        C318   1.385       .  A
C313        C314   1.399       .  A
C313        S319   1.701       .  A
C314        C315   1.400       .  A
C314        H325   1.083       .  S
C315        C324   1.367       .  A
C315        C316   1.386       .  A
C316        C317   1.405       .  A
C316        S322   1.713       .  A
C317        C318   1.406       .  A
C317        H326   1.083       .  S
C318        C321   1.373       .  A
S319        C320   1.728       .  A
C320        C321   1.395       .  A
C321        H327   1.081       .  S
S322        C323   1.725       .  A
C323        C324   1.386       .  A
C324        H328   1.083       .  S
C329        C334   1.385       .  A
C329        C330   1.406       .  A
C329        S335   1.708       .  A
C330        C331   1.406       .  A
C330        H341   1.083       .  S
C331        C340   1.377       .  A
C331        C332   1.387       .  A
C332        C333   1.400       .  A
C332        S338   1.702       .  A
C333        C334   1.400       .  A
C333        H342   1.083       .  S
C334        C337   1.370       .  A
S335        C336   1.732       .  A
C336        C337   1.390       .  A
C337        H343   1.082       .  S
S338        C339   1.723       .  A
C339        C340   1.389       .  A
C340        H344   1.083       .  S
C345        C350   1.387       .  A
C345        C346   1.406       .  A
C345        S351   1.707       .  A
C346        C347   1.405       .  A
C346        H357   1.083       .  S
C347        C356   1.377       .  A
C347        C348   1.385       .  A
C348        C349   1.400       .  A
C348        S354   1.696       .  A
C349        C350   1.399       .  A
C349        H358   1.083       .  S
C350        C353   1.372       .  A
S351        C352   1.727       .  A
C352        C353   1.384       .  A
C353        H359   1.083       .  S
S354        C355   1.731       .  A
C355        C356   1.394       .  A
C356        H360   1.081       .  S
C361        C366   1.386       .  A
C361        C362   1.397       .  A
C361        S367   1.702       .  A
C362        C363   1.399       .  A
C362        H373   1.083       .  S
C363        C372   1.363       .  A
C363        C364   1.386       .  A
C364        C365   1.403       .  A
C364        S370   1.712       .  A
C365        C366   1.405       .  A
C365        H374   1.083       .  S
C366        C369   1.370       .  A
S367        C368   1.725       .  A
C368        C369   1.392       .  A
C369        H375   1.082       .  S
S370        C371   1.723       .  A
C371        C372   1.385       .  A
C372        H376   1.083       .  S
C377        C382   1.387       .  A
C377        C378   1.399       .  A
C377        S383   1.703       .  A
C378        C379   1.400       .  A
C378        H389   1.083       .  S
C379        C388   1.368       .  A
C379        C380   1.384       .  A
C380        C381   1.404       .  A
C380        S386   1.707       .  A
C381        C382   1.404       .  A
C381        H390   1.083       .  S
C382        C385   1.373       .  A
S383        C384   1.722       .  A
C384        C385   1.388       .  A
C385        H391   1.083       .  S
S386        C387   1.732       .  A
C387        C388   1.392       .  A
C388        H392   1.081       .  S
C393        C398   1.384       .  A
C393        C394   1.405       .  A
C393        S399   1.710       .  A
C394        C395   1.406       .  A
C394        H405   1.083       .  S
C395        C404   1.374       .  A
C395        C396   1.386       .  A
C396        C397   1.396       .  A
C396        S402   1.698       .  A
C397        C398   1.398       .  A
C397        H406   1.083       .  S
C398        C401   1.364       .  A
S399        C400   1.731       .  A
C400        C401   1.390       .  A
C401        H407   1.082       .  S
S402        C403   1.726       .  A
C403        C404   1.391       .  A
C404        H408   1.082       .  S
C409        C414   1.384       .  A
C409        C410   1.398   1_655  A
C409        S415   1.696       .  A
C410        C411   1.398       .  A
C410        H421   1.083       .  S
C411        C420   1.368       .  A
C411        C412   1.387       .  A
C412        C413   1.405       .  A
C412        S418   1.708       .  A
C413        C414   1.405   1_455  A
C413        H422   1.083       .  S
C414        C417   1.375       .  A
S415        C416   1.731       .  A
C416        C417   1.395       .  A
C417        H423   1.081       .  S
S418        C419   1.727       .  A
C419        C420   1.385       .  A
C420        H424   1.083       .  S
C425        C430   1.387       .  A
C425        C426   1.401       .  A
C425        S431   1.704       .  A
C426        C427   1.402       .  A
C426        H437   1.083       .  S
C427        C436   1.373       .  A
C427        C428   1.383       .  A
C428        C429   1.406       .  A
C428        S434   1.705       .  A
C429        C430   1.405       .  A
C429        H438   1.083       .  S
C430        C433   1.377       .  A
S431        C432   1.724       .  A
C432        C433   1.389       .  A
C433        H439   1.083       .  S
S434        C435   1.735       .  A
C435        C436   1.394       .  A
C436        H440   1.080       .  S
C441        C446   1.385       .  A
C441        C442   1.404   1_545  A
C441        S447   1.708       .  A
C442        C443   1.404       .  A
C442        H453   1.083       .  S
C443        C452   1.372       .  A
C443        C444   1.386       .  A
C444        C445   1.398   1_565  A
C444        S450   1.700       .  A
C445        C446   1.399       .  A
C445        H454   1.083       .  S
C446        C449   1.366       .  A
S447        C448   1.730       .  A
C448        C449   1.390       .  A
C449        H455   1.082       .  S
S450        C451   1.726       .  A
C451        C452   1.390       .  A
C452        H456   1.082       .  S
C457        C462   1.386       .  A
C457        C458   1.407       .  A
C457        S463   1.716       .  A
C458        C459   1.408       .  A
C458        H469   1.083       .  S
C459        C468   1.376       .  A
C459        C460   1.384       .  A
C460        C461   1.401       .  A
C460        S466   1.704       .  A
C461        C462   1.402       .  A
C461        H470   1.083       .  S
C462        C465   1.370       .  A
S463        C464   1.727       .  A
C464        C465   1.388       .  A
C465        H471   1.083       .  S
S466        C467   1.729       .  A
C467        C468   1.396       .  A
C468        H472   1.081       .  S
C473        C478   1.385       .  A
C473        C474   1.405       .  A
C473        S479   1.708       .  A
C474        C475   1.405   1_455  A
C474        H485   1.083       .  S
C475        C484   1.376       .  A
C475        C476   1.385       .  A
C476        C477   1.403   1_655  A
C476        S482   1.704       .  A
C477        C478   1.403       .  A
C477        H486   1.083       .  S
C478        C481   1.373       .  A
S479        C480   1.730       .  A
C480        C481   1.392       .  A
C481        H487   1.082       .  S
S482        C483   1.730       .  A
C483        C484   1.392       .  A
C484        H488   1.082       .  S
C489        C494   1.387       .  A
C489        C490   1.402       .  A
C489        S495   1.705       .  A
C490        C491   1.403       .  A
C490        H501   1.083       .  S
C491        C500   1.373       .  A
C491        C492   1.384       .  A
C492        C493   1.404       .  A
C492        S498   1.704       .  A
C493        C494   1.403       .  A
C493        H502   1.083       .  S
C494        C497   1.374       .  A
S495        C496   1.724       .  A
C496        C497   1.386       .  A
C497        H503   1.083       .  S
S498        C499   1.732       .  A
C499        C500   1.393       .  A
C500        H504   1.081       .  S
C505        C510   1.385       .  A
C505        C506   1.409   1_565  A
C505        S511   1.716       .  A
C506        C507   1.410       .  A
C506        H517   1.083       .  S
C507        C516   1.379       .  A
C507        C508   1.385       .  A
C508        C509   1.398       .  A
C508        S514   1.698       .  A
C509        C510   1.399   1_545  A
C509        H518   1.083   1_545  S
C510        C513   1.367       .  A
S511        C512   1.730       .  A
C512        C513   1.389       .  A
C513        H519   1.083       .  S
S514        C515   1.729       .  A
C515        C516   1.397       .  A
C516        H520   1.082       .  S
C521        C526   1.386       .  A
C521        C522   1.401       .  A
C521        S527   1.704       .  A
C522        C523   1.402       .  A
C522        H533   1.083       .  S
C523        C532   1.371       .  A
C523        C524   1.384       .  A
C524        C525   1.405       .  A
C524        S530   1.708       .  A
C525        C526   1.405       .  A
C525        H534   1.083       .  S
C526        C529   1.375       .  A
S527        C528   1.727       .  A
C528        C529   1.392       .  A
C529        H535   1.083       .  S
S530        C531   1.731       .  A
C531        C532   1.393       .  A
C532        H536   1.082       .  S
