geometry optimzed in LAMMPS
_audit_creation_date              2020-11-30 
_audit_creation_method            'lammps2cif' 
_symmetry_space_group_name_H-M    'P1' 
_symmetry_Int_Tables_number       1 
_symmetry_cell_setting            triclinic 
loop_ 
_symmetry_equiv_pos_as_xyz 
  x,y,z 
_cell_length_a                    45.11658238 
_cell_length_b                    45.09382450745054 
_cell_length_c                    46.590184078513694 
_cell_angle_alpha                 89.50456452550534 
_cell_angle_beta                  89.80302801496775 
_cell_angle_gamma                 90.17852931650523 
loop_ 
_atom_site_label 
_atom_site_type_symbol 
_atom_site_fract_x 
_atom_site_fract_y 
_atom_site_fract_z 
_atom_site_charge 
O1          O  0.37529347  0.44487721  0.04665401    -0.82500
C2          C  0.25849127  0.41033677  0.04503821     0.96800
O3          O  0.28082301  0.41229092  0.02894925    -0.71700
O4          O  0.33114508  0.43241198  0.00857739    -0.75300
Al5        Al  0.31985445  0.40713287  0.04072503     1.49000
C6          C  0.33114925  0.46035864  0.00517197     0.92100
O7          O  0.31503427  0.49629210  0.07826410    -0.81500
O8          O  0.31744981  0.45240766  0.12273321    -0.75000
Al9        Al  0.34234378  0.46716503  0.06293457     1.90100
O10         O  0.27415720  0.47071474  0.08465273    -0.74100
O11         O  0.30592222  0.39823846  0.10807176    -0.74000
O12         O  0.26037045  0.41579847  0.07170111    -0.79600
O13         O  0.30849230  0.37533731  0.06696815    -0.77800
O14         O  0.31781847  0.43629684  0.06609612    -1.13900
O15         O  0.35934698  0.39897377  0.04991282    -0.73100
C16         C  0.37971594  0.41722085  0.04421378     0.97600
C17         C  0.28755113  0.49515229  0.08387535     0.94000
Al18       Al  0.29160348  0.43446348  0.09446708     1.55600
O19         O  0.32798904  0.47720015  0.02636509    -0.77800
C20         C  0.30526504  0.37473503  0.09395253     0.98100
C21         C  0.34481524  0.45904855  0.12234130     0.93000
O22         O  0.35912448  0.46036621  0.09913099    -0.83100
O23         O  0.44382198  0.12366509  0.31535571    -0.82500
C24         C  0.46346281  0.00360670  0.33257123     0.96800
O25         O  0.47712896  0.02788626  0.33257762    -0.71700
O26         O  0.49094088  0.08254728  0.31859022    -0.75300
Al27       Al  0.46064011  0.06427306  0.34282674     1.49000
C28         C  0.49190624  0.08819138  0.29183940     0.92100
O29         O  0.41767228  0.06743639  0.25852558    -0.81500
O30         O  0.37522312  0.05509375  0.29874443    -0.75000
Al31       Al  0.43070409  0.09222179  0.29005670     1.90100
O32         O  0.42109607  0.02239949  0.27634604    -0.74100
O33         O  0.39323830  0.03902606  0.35020790    -0.74000
O34         O  0.43584664  0.00275912  0.32792806    -0.79600
O35         O  0.43565133  0.04647153  0.37230163    -0.77800
O36         O  0.43337845  0.06289103  0.31554240    -1.13900
O37         O  0.44772250  0.10092444  0.35674372    -0.73100
C38         C  0.44843831  0.12441913  0.34213203     0.97600
C39         C  0.41758699  0.03953052  0.25514178     0.94000
Al40       Al  0.40841953  0.03230716  0.31355114     1.55600
O41         O  0.46905854  0.08647484  0.27659010    -0.77800
C42         C  0.40826136  0.03999144  0.37285901     0.98100
C43         C  0.37103841  0.08282588  0.29668728     0.93000
O44         O  0.39184768  0.10079033  0.30123121    -0.83100
O45         O  0.18787243  0.24591644  0.17336397    -0.82500
C46         C  0.19851867  0.12477569  0.15842861     0.96800
O47         O  0.19850879  0.14839085  0.14391687    -0.71700
O48         O  0.18809218  0.20348677  0.12888598    -0.75300
Al49       Al  0.21209397  0.18474675  0.15825388     1.49000
C50         C  0.16081575  0.21016034  0.12784547     0.92100
O51         O  0.12600983  0.19401191  0.20172619    -0.81500
O52         O  0.16844058  0.18143777  0.24260232    -0.75000
Al53       Al  0.15973520  0.21664017  0.18721346     1.90100
O54         O  0.14236230  0.14829092  0.19993716    -0.74100
O55         O  0.21968951  0.16208078  0.22419230    -0.74000
O56         O  0.19390151  0.12542051  0.18524973    -0.79600
O57         O  0.24174523  0.16572755  0.18212754    -0.77800
O58         O  0.18443957  0.18603843  0.18540860    -1.13900
O59         O  0.22913427  0.22084036  0.16924661    -0.73100
C60         C  0.21565005  0.24516101  0.16936841     0.97600
C61         C  0.12164016  0.16631846  0.20417618     0.94000
Al62       Al  0.18127467  0.15668061  0.21087150     1.55600
O63         O  0.14512594  0.21025399  0.15022804    -0.77800
C64         C  0.24253464  0.16013685  0.20883974     0.98100
C65         C  0.16811545  0.20935884  0.24570031     0.93000
O66         O  0.17180969  0.22639626  0.22444825    -0.83100
O67         O  0.00992298  0.33249212  0.43068276    -0.82500
C68         C  0.12962495  0.33352545  0.45602103     0.96800
O69         O  0.10878953  0.35136191  0.45121220    -0.71700
O70         O  0.05715921  0.37337140  0.43479612    -0.75300
Al71       Al  0.06944025  0.34197519  0.46082882     1.49000
C72         C  0.05330325  0.37422024  0.40788626     0.92100
O73         O  0.06590477  0.29625224  0.37878895    -0.81500
O74         O  0.06534781  0.25285232  0.42317949    -0.75000
Al75       Al  0.04074940  0.31416866  0.40755835     1.90100
O76         O  0.10844722  0.28963262  0.40078938    -0.74100
O77         O  0.07966058  0.27222632  0.47463264    -0.74000
O78         O  0.12565498  0.30581988  0.45298263    -0.79600
O79         O  0.08166391  0.31696399  0.49274550    -0.77800
O80         O  0.06762312  0.31292866  0.43527907    -1.13900
O81         O  0.03057426  0.33572299  0.47320778    -0.73100
C82         C  0.00822309  0.33786760  0.45732050     0.97600
C83         C  0.09325986  0.28983401  0.37815474     0.94000
Al84       Al  0.09273017  0.28264403  0.43765251     1.55600
O85         O  0.05423686  0.35083901  0.39347108    -0.77800
C86         C  0.08269851  0.28903423  0.49584508     0.98100
C87         C  0.03771612  0.25348560  0.41828193     0.93000
O88         O  0.02398035  0.27766722  0.41817462    -0.83100
C89         C  0.14733933  0.21992719  0.10068879    -0.06000
C90         C  0.15721151  0.20872009  0.07438998    -0.05900
C91         C  0.14481140  0.21888918  0.04871922    -0.24100
C92         C  0.12302600  0.24103657  0.04901892     0.18100
C93         C  0.11338858  0.25291705  0.07539019     0.15400
C94         C  0.12520595  0.24184685  0.10108372    -0.19100
C95         C  0.09275513  0.27620370  0.07551175    -0.20900
C96         C  0.08215646  0.28796993  0.04963153    -0.13500
C97         C  0.09124882  0.27583573  0.02345935     0.03200
C98         C  0.11138942  0.25213409  0.02332809    -0.25600
H99         H  0.17435655  0.19197860  0.07375210     0.08300
H100        H  0.15262655  0.20982091  0.02860297     0.11900
H101        H  0.11796367  0.25104038  0.12136723     0.11800
H102        H  0.08538333  0.28575721  0.09556811     0.11500
H103        H  0.06694554  0.30649764  0.04999940     0.12100
H104        H  0.11910684  0.24325116  0.00306878     0.14000
C105        C  0.15999626  0.22254508  0.27343157    -0.06000
C106        C  0.16876356  0.20981780  0.29960301    -0.05900
C107        C  0.15908434  0.22195242  0.32557806    -0.24100
C108        C  0.13965159  0.24627887  0.32560372     0.18100
C109        C  0.13041925  0.25883643  0.29925596     0.15400
C110        C  0.14116571  0.24732026  0.27345040    -0.19100
C111        C  0.10979552  0.28206928  0.29906382    -0.20900
C112        C  0.09790545  0.29244204  0.32479515    -0.13500
C113        C  0.10718491  0.28042526  0.35109307     0.03200
C114        C  0.12845880  0.25763146  0.35141663    -0.25600
H115        H  0.18307860  0.19057494  0.29991873     0.08300
H116        H  0.16617423  0.21189215  0.34558091     0.11900
H117        H  0.13376486  0.25680096  0.25325895     0.11800
H118        H  0.10232853  0.29170658  0.27899770     0.11500
H119        H  0.08142130  0.30985411  0.32418238     0.12100
H120        H  0.13522891  0.24784153  0.37167501     0.14000
C121        C  0.34342470  0.09452024  0.28463773    -0.06000
C122        C  0.31597467  0.08092002  0.28997833    -0.05900
C123        C  0.29047819  0.09160702  0.27643605    -0.24100
C124        C  0.29245925  0.11531663  0.25673406     0.18100
C125        C  0.32025325  0.12840985  0.25061506     0.15400
C126        C  0.34537584  0.11829990  0.26502035    -0.19100
C127        C  0.32255805  0.15109230  0.22987176    -0.20900
C128        C  0.29732861  0.16111305  0.21553686    -0.13500
C129        C  0.26956113  0.14906619  0.22239952     0.03200
C130        C  0.26722202  0.12605740  0.24284974    -0.25600
H131        H  0.31430003  0.06220802  0.30463246     0.08300
H132        H  0.26932772  0.08111485  0.28104070     0.11900
H133        H  0.36675197  0.12823894  0.26012406     0.11800
H134        H  0.34384817  0.16102525  0.22473975     0.11500
H135        H  0.29934009  0.17872573  0.19968687     0.12100
H136        H  0.24573959  0.11630992  0.24767579     0.14000
C137        C  0.01917406  0.09965402  0.27833726    -0.06000
C138        C  0.04709907  0.08976537  0.28713573    -0.05900
C139        C  0.07260648  0.10044898  0.27343818    -0.24100
C140        C  0.07042209  0.12168936  0.25133000     0.18100
C141        C  0.04241504  0.13260779  0.24306875     0.15400
C142        C  0.01693967  0.12115820  0.25635365    -0.19100
C143        C  0.04046793  0.15495134  0.22190492    -0.20900
C144        C  0.06619528  0.16629958  0.20893076    -0.13500
C145        C  0.09390186  0.15466945  0.21635617     0.03200
C146        C  0.09584448  0.13243613  0.23757753    -0.25600
H147        H  0.54891120  0.07170164  0.30284105     0.08300
H148        H  0.09403796  0.09220217  0.28018510     0.11900
H149        H  0.99534713  0.12936682  0.24996549     0.11800
H150        H  0.01912492  0.16380623  0.21562811     0.11500
H151        H  0.06449164  0.18379852  0.19295615     0.12100
H152        H  0.11737314  0.12407660  0.24399920     0.14000
C153        C  0.45836708  0.15201396  0.35609019    -0.06000
C154        C  0.95128684  0.17989986  0.34483484    -0.05900
C155        C  0.96398309  0.20552525  0.35634067    -0.24100
C156        C  0.98469621  0.20342956  0.37872374     0.18100
C157        C  0.49175761  0.17558307  0.39033075     0.15400
C158        C  0.47798032  0.15010276  0.37953167    -0.19100
C159        C  0.51332736  0.17343200  0.41196085    -0.20900
C160        C  0.52834251  0.19878926  0.42130631    -0.13500
C161        C  0.02142363  0.22649240  0.40991554     0.03200
C162        C  0.99897902  0.22881541  0.38907645    -0.25600
H163        H  0.93628794  0.18188399  0.32682302     0.08300
H164        H  0.95832678  0.22690437  0.34713365     0.11900
H165        H  0.48390048  0.12857819  0.38829569     0.11800
H166        H  0.51909988  0.15206192  0.42111833     0.11500
H167        H  0.54539977  0.19664040  0.43748809     0.12100
H168        H  0.99353283  0.25033078  0.37998839     0.14000
C169        C  0.47984551  0.47673840  0.34074839    -0.06000
C170        C  0.47204126  0.44886841  0.32999203    -0.05900
C171        C  0.48711335  0.42347198  0.33924123    -0.24100
C172        C  0.50945926  0.42558131  0.36007921     0.18100
C173        C  0.01739982  0.45339023  0.37099089     0.15400
C174        C  0.50273279  0.47895870  0.36106618    -0.19100
C175        C  0.03859053  0.45534599  0.39291772    -0.20900
C176        C  0.05124606  0.42964085  0.40448145    -0.13500
C177        C  0.04368582  0.40177760  0.39354580     0.03200
C178        C  0.02333693  0.39989626  0.37076522    -0.25600
H179        H  0.45448872  0.94671844  0.31426597     0.08300
H180        H  0.48078442  0.40211350  0.33067203     0.11900
H181        H  0.00881318  0.50026113  0.36956545     0.11800
H182        H  0.04459287  0.47666177  0.40179203     0.11500
H183        H  0.06655581  0.43145253  0.42223968     0.12100
H184        H  0.01677192  0.37837075  0.36269913     0.14000
C185        C  0.35995771  0.46779947  0.14880087    -0.06000
C186        C  0.35876546  0.45000159  0.17356444    -0.05900
C187        C  0.37265768  0.95937083  0.19870350    -0.24100
C188        C  0.38687792  0.98712638  0.19963900     0.18100
C189        C  0.38814503  0.50503460  0.17474360     0.15400
C190        C  0.37525254  0.49495544  0.14929337    -0.19100
C191        C  0.40118862  0.53328091  0.17593540    -0.20900
C192        C  0.41172753  0.04427050  0.20188897    -0.13500
C193        C  0.41035433  0.02674948  0.22690424     0.03200
C194        C  0.39866721  0.99778910  0.22540605    -0.25600
H195        H  0.34719991  0.42891455  0.17333541     0.08300
H196        H  0.37152858  0.94532361  0.21764620     0.11900
H197        H  0.37592564  0.50880265  0.13015785     0.11800
H198        H  0.40217776  0.54735118  0.15700103     0.11500
H199        H  0.42048920  0.06664597  0.20257206     0.12100
H200        H  0.39706779  0.98420783  0.24465552     0.14000
C201        C  0.39368517  0.03091542  0.39966286    -0.06000
C202        C  0.39594919  0.04788377  0.42458723    -0.05900
C203        C  0.38138437  0.03869705  0.44970411    -0.24100
C204        C  0.36526762  0.01196782  0.45029531     0.18100
C205        C  0.36315139  0.49472119  0.42528392     0.15400
C206        C  0.37696264  0.00462083  0.39995770    -0.19100
C207        C  0.34828943  0.46735703  0.42612995    -0.20900
C208        C  0.33656953  0.45653901  0.45195434    -0.13500
C209        C  0.33877002  0.47334285  0.47705588     0.03200
C210        C  0.35235678  0.00151079  0.47582429    -0.25600
H211        H  0.40863056  0.06832017  0.42447054     0.08300
H212        H  0.38325333  0.05211592  0.46880280     0.11900
H213        H  0.37541813  0.49141840  0.38072441     0.11800
H214        H  0.34670775  0.45383830  0.40707097     0.11500
H215        H  0.32646005  0.43472366  0.45248552     0.12100
H216        H  0.35467501  0.01442707  0.49522136     0.14000
C217        C  0.29594055  0.34758720  0.10907182    -0.06000
C218        C  0.30904966  0.31999594  0.10406591    -0.05900
C219        C  0.29773184  0.29450277  0.11766974    -0.26100
C220        C  0.27248687  0.29631316  0.13540196     0.18100
C221        C  0.25933053  0.32415798  0.14040274     0.15400
C222        C  0.27155066  0.34957593  0.12775027    -0.19100
C223        C  0.23334832  0.32605206  0.15687871    -0.20900
C224        C  0.21966537  0.30036215  0.16735222    -0.13500
C225        C  0.23219616  0.27249340  0.16216844     0.03200
C226        C  0.25919944  0.27069104  0.14694509    -0.25600
H227        H  0.32784301  0.31821321  0.08966505     0.08300
H228        H  0.30803098  0.27328650  0.11354156     0.11900
H229        H  0.26104460  0.37086766  0.13120210     0.11800
H230        H  0.22299256  0.34730629  0.16071943     0.11500
H231        H  0.19889845  0.30222427  0.17892183     0.12100
H232        H  0.26886318  0.24923300  0.14247556     0.14000
C233        C  0.27102792  0.02199557  0.09177406    -0.06000
C234        C  0.27786998  0.04973678  0.07964867    -0.05900
C235        C  0.26263765  0.07507491  0.08850081    -0.24100
C236        C  0.24107952  0.07310405  0.11029196     0.18100
C237        C  0.23429822  0.04528210  0.12281863     0.15400
C238        C  0.24888190  0.01986420  0.11306807    -0.19100
C239        C  0.21388842  0.04351062  0.14561415    -0.20900
C240        C  0.20111841  0.06927414  0.15663658    -0.13500
C241        C  0.20780758  0.09704141  0.14441026     0.03200
C242        C  0.22722188  0.09866015  0.12068330    -0.25600
H243        H  0.29490629  0.05175993  0.06330314     0.08300
H244        H  0.26824607  0.09630531  0.07884808     0.11900
H245        H  0.24390295  0.99854598  0.12292194     0.11800
H246        H  0.20863497  0.02233920  0.15557600     0.11500
H247        H  0.18651519  0.06758819  0.17508625     0.12100
H248        H  0.23309236  0.12005754  0.11148850     0.14000
C249        C  0.40711784  0.40595073  0.03100818    -0.06000
C250        C  0.43416742  0.42103702  0.03356226    -0.05900
C251        C  0.45950007  0.41043878  0.51952910    -0.24100
C252        C  0.45774833  0.38523112  0.50207776     0.18100
C253        C  0.43028646  0.37065853  0.99851927     0.15400
C254        C  0.40534396  0.38079793  0.01337094    -0.19100
C255        C  0.42824355  0.34624963  0.98003835    -0.20900
C256        C  0.45345048  0.33592925  0.46563529    -0.13500
C257        C  0.48092777  0.34955664  0.47012984     0.03200
C258        C  0.48292393  0.37436624  0.48810770    -0.25600
H259        H  0.43576303  0.44076785  0.04656940     0.08300
H260        H  0.48032402  0.42211811  0.52209064     0.11900
H261        H  0.38427969  0.36958573  0.01053009     0.11800
H262        H  0.40725306  0.33505417  0.97685873     0.11500
H263        H  0.45167924  0.31686999  0.45174340     0.12100
H264        H  0.50415674  0.38521750  0.49113733     0.14000
C265        C  0.15720011  0.34508509  0.46890934    -0.06000
C266        C  0.18394456  0.32947601  0.46686781    -0.05900
C267        C  0.20911350  0.33937277  0.48146889    -0.24100
C268        C  0.20764978  0.36452284  0.49900671     0.18100
C269        C  0.18059112  0.38005474  0.00187395     0.15400
C270        C  0.15582424  0.37051969  0.48628826    -0.19100
C271        C  0.17888328  0.40453832  0.02033707    -0.20900
C272        C  0.20389129  0.41389513  0.03560770    -0.13500
C273        C  0.23095615  0.39923860  0.03209226     0.03200
C274        C  0.23258648  0.37445833  0.01401210    -0.25600
H275        H  0.18532119  0.30959336  0.45406418     0.08300
H276        H  0.22961427  0.32710476  0.47939478     0.11900
H277        H  0.13503947  0.38226810  0.48869704     0.11800
H278        H  0.15826391  0.41651551  0.02283682     0.11500
H279        H  0.20239466  0.43311186  0.04931755     0.12100
H280        H  0.25360110  0.36292078  0.51133484     0.14000
O281        O  0.37535238  0.44477193  0.54669255    -0.82500
C282        C  0.25857529  0.41023589  0.54499851     0.96800
O283        O  0.28094278  0.41212768  0.52895044    -0.71700
O284        O  0.33128047  0.43224238  0.50862878    -0.75300
Al285      Al  0.31995259  0.40699727  0.54078893     1.49000
C286        C  0.33124670  0.46018600  0.50519529     0.92100
O287        O  0.31508433  0.49621542  0.57824096    -0.81500
O288        O  0.31746988  0.45234809  0.62274017    -0.75000
Al289      Al  0.34238789  0.46706523  0.56294150     1.90100
O290        O  0.27419979  0.47065525  0.58461099    -0.74100
O291        O  0.30588617  0.39817179  0.60811930    -0.74000
O292        O  0.26040647  0.41574242  0.57165805    -0.79600
O293        O  0.30855422  0.37523305  0.56704340    -0.77800
O294        O  0.31787001  0.43619411  0.56612236    -1.13900
O295        O  0.35943800  0.39886498  0.55004621    -0.73100
C296        C  0.37979451  0.41711338  0.54430586     0.97600
C297        C  0.28760053  0.49508772  0.58384179     0.94000
Al298      Al  0.29162130  0.43439930  0.59446311     1.55600
O299        O  0.32802719  0.47704542  0.52636658    -0.77800
C300        C  0.30526041  0.37465569  0.59401924     0.98100
C301        C  0.34483798  0.45899314  0.62234709     0.93000
O302        O  0.35915210  0.46030110  0.59913973    -0.83100
O303        O  0.44379363  0.12360672  0.81540534    -0.82500
C304        C  0.46369235  0.00356828  0.83249526     0.96800
O305        O  0.47729849  0.02788285  0.83258853    -0.71700
O306        O  0.49097827  0.08262652  0.81869533    -0.75300
Al307      Al  0.46068205  0.06422135  0.84284497     1.49000
C308        C  0.49199051  0.08832364  0.79195540     0.92100
O309        O  0.41786733  0.06737386  0.75845563    -0.81500
O310        O  0.37537222  0.05488826  0.79859530    -0.75000
Al311      Al  0.43079154  0.09215370  0.79004306     1.90100
O312        O  0.42137079  0.02232951  0.77623504    -0.74100
O313        O  0.39333176  0.03878375  0.85007647    -0.74000
O314        O  0.43608410  0.00267033  0.82781058    -0.79600
O315        O  0.43568041  0.04632403  0.87225090    -0.77800
O316        O  0.43348162  0.06280113  0.81550410    -1.13900
O317        O  0.44762965  0.10081841  0.85677590    -0.73100
C318        C  0.44836129  0.12433084  0.84219195     0.97600
C319        C  0.41782785  0.03947087  0.75504509     0.94000
Al320      Al  0.40860218  0.03215961  0.81343216     1.55600
O321        O  0.46919112  0.08650647  0.77664697    -0.77800
C322        C  0.40830134  0.03979369  0.87275952     0.98100
C323        C  0.37113337  0.08261407  0.79655311     0.93000
O324        O  0.39189501  0.10061817  0.80115418    -0.83100
O325        O  0.18776149  0.24581865  0.67334943    -0.82500
C326        C  0.19856311  0.12468591  0.65863334     0.96800
O327        O  0.19847744  0.14827586  0.64408091    -0.71700
O328        O  0.18804022  0.20335118  0.62896382    -0.75300
Al329      Al  0.21205944  0.18466083  0.65834457     1.49000
C330        C  0.16075435  0.20997768  0.62790166     0.92100
O331        O  0.12598402  0.19384164  0.70182227    -0.81500
O332        O  0.16850008  0.18147319  0.74273432    -0.75000
Al333      Al  0.15966193  0.21651884  0.68725744     1.90100
O334        O  0.14244873  0.14815824  0.70017206    -0.74100
O335        O  0.21977842  0.16216648  0.72431596    -0.74000
O336        O  0.19400400  0.12536839  0.68546451    -0.79600
O337        O  0.24175085  0.16568721  0.68220530    -0.77800
O338        O  0.18442639  0.18596430  0.68551434    -1.13900
O339        O  0.22906160  0.22078343  0.66929029    -0.73100
C340        C  0.21554551  0.24508885  0.66936832     0.97600
C341        C  0.12167349  0.16614151  0.70434023     0.94000
Al342      Al  0.18134991  0.15666142  0.71104562     1.55600
O343        O  0.14505089  0.21002890  0.65027670    -0.77800
C344        C  0.24259000  0.16015256  0.70892521     0.98100
C345        C  0.16811036  0.20940276  0.74576238     0.93000
O346        O  0.17172014  0.22639094  0.72446280    -0.83100
O347        O  0.00990464  0.33264714  0.93064259    -0.82500
C348        C  0.12955968  0.33358072  0.95608882     0.96800
O349        O  0.10873901  0.35143404  0.95126880    -0.71700
O350        O  0.05710821  0.37347803  0.93486964    -0.75300
Al351      Al  0.06938284  0.34205069  0.96085836     1.49000
C352        C  0.05328460  0.37437093  0.90795847     0.92100
O353        O  0.06592514  0.29644003  0.87876331    -0.81500
O354        O  0.06525366  0.25297104  0.92315610    -0.75000
Al355      Al  0.04074639  0.31433668  0.90752138     1.90100
O356        O  0.10841999  0.28971878  0.90081722    -0.74100
O357        O  0.07953600  0.27229871  0.97462790    -0.74000
O358        O  0.12557906  0.30587766  0.95302988    -0.79600
O359        O  0.08158810  0.31702366  0.99275350    -0.77800
O360        O  0.06757748  0.31303372  0.93527776    -1.13900
O361        O  0.03051288  0.33577207  0.97319840    -0.73100
C362        C  0.00818051  0.33796809  0.95729134     0.97600
C363        C  0.09327095  0.28998153  0.87815909     0.94000
Al364      Al  0.09265313  0.28272732  0.93766120     1.55600
O365        O  0.05429023  0.35101833  0.89350544    -0.77800
C366        C  0.08259314  0.28909494  0.99584619     0.98100
C367        C  0.03763173  0.25364054  0.91821372     0.93000
O368        O  0.02392681  0.27783875  0.91805529    -0.83100
C369        C  0.14730191  0.21975739  0.60073048    -0.06000
C370        C  0.15737373  0.20873679  0.57442490    -0.05900
C371        C  0.14507258  0.21898028  0.54873715    -0.24100
C372        C  0.12317964  0.24101988  0.54902722     0.18100
C373        C  0.11332696  0.25271111  0.57540520     0.15400
C374        C  0.12505063  0.24156168  0.60111267    -0.19100
C375        C  0.09257638  0.27589649  0.57552280    -0.20900
C376        C  0.08206015  0.28773652  0.54963768    -0.13500
C377        C  0.09135812  0.27577363  0.52345814     0.03200
C378        C  0.11163463  0.25218908  0.52332547    -0.25600
H379        H  0.17461560  0.19209481  0.57379136     0.08300
H380        H  0.15305156  0.21005912  0.52861769     0.11900
H381        H  0.11765199  0.25062020  0.62140138     0.11800
H382        H  0.08503689  0.28530762  0.59558535     0.11500
H383        H  0.06673515  0.30616946  0.55000827     0.12100
H384        H  0.11950313  0.24344067  0.50306389     0.14000
C385        C  0.16003121  0.22265425  0.77347654    -0.06000
C386        C  0.16890056  0.21003115  0.79966156    -0.05900
C387        C  0.15925846  0.22222114  0.82562488    -0.24100
C388        C  0.13976202  0.24649669  0.82563008     0.18100
C389        C  0.13044495  0.25896328  0.79927083     0.15400
C390        C  0.14115456  0.24739549  0.77347243    -0.19100
C391        C  0.10976603  0.28214672  0.79906383    -0.20900
C392        C  0.09788554  0.29254060  0.82479132    -0.13500
C393        C  0.10722670  0.28059621  0.85110032     0.03200
C394        C  0.12857723  0.25787326  0.85143645    -0.25600
H395        H  0.18326256  0.19082389  0.79999663     0.08300
H396        H  0.16642040  0.21223499  0.84563817     0.11900
H397        H  0.13368429  0.25680246  0.75327283     0.11800
H398        H  0.10223867  0.29171856  0.77898949     0.11500
H399        H  0.08134782  0.30990105  0.82416553     0.12100
H400        H  0.13540409  0.24814007  0.87170232     0.14000
C401        C  0.34351899  0.09427306  0.78446893    -0.06000
C402        C  0.31606987  0.08066498  0.78979506    -0.05900
C403        C  0.29056619  0.09138956  0.77628885    -0.24100
C404        C  0.29253847  0.11514950  0.75664113     0.18100
C405        C  0.32033627  0.12823104  0.75051545     0.15400
C406        C  0.34546676  0.11807526  0.76487702    -0.19100
C407        C  0.32263390  0.15096452  0.72982410    -0.20900
C408        C  0.29739245  0.16105607  0.71555607    -0.13500
C409        C  0.26962130  0.14902942  0.72243630     0.03200
C410        C  0.26728867  0.12596209  0.74282605    -0.25600
H411        H  0.31439767  0.06193390  0.80442644     0.08300
H412        H  0.26941384  0.08090130  0.78089319     0.11900
H413        H  0.36684262  0.12801840  0.75998753     0.11800
H414        H  0.34392708  0.16088701  0.72468509     0.11500
H415        H  0.29939895  0.17870577  0.69974426     0.12100
H416        H  0.24580201  0.11622724  0.74765753     0.14000
C417        C  0.01904278  0.09937684  0.77823035    -0.06000
C418        C  0.04690136  0.08884193  0.78649772    -0.05900
C419        C  0.07240519  0.09934142  0.77265744    -0.24100
C420        C  0.07029467  0.12104471  0.75096268     0.18100
C421        C  0.04236859  0.13257512  0.74324147     0.15400
C422        C  0.01687934  0.12130088  0.75663914    -0.19100
C423        C  0.04052035  0.15536307  0.72252234    -0.20900
C424        C  0.06626833  0.16660666  0.70950678    -0.13500
C425        C  0.09389073  0.15443999  0.71641700     0.03200
C426        C  0.09572265  0.13169010  0.73713965    -0.25600
H427        H  0.54909638  0.07272670  0.80366265     0.08300
H428        H  0.09377873  0.09060725  0.77898728     0.11900
H429        H  0.99534022  0.12996865  0.75066241     0.11800
H430        H  0.01924682  0.16467686  0.71666263     0.11500
H431        H  0.06464290  0.18449333  0.69393174     0.12100
H432        H  0.11718642  0.12288409  0.74318969     0.14000
C433        C  0.45828874  0.15189853  0.85619906    -0.06000
C434        C  0.95146272  0.17998426  0.84456578    -0.05900
C435        C  0.96419194  0.20562395  0.85600505    -0.24100
C436        C  0.98471559  0.20357495  0.87855283     0.18100
C437        C  0.49182646  0.17542033  0.89033780     0.15400
C438        C  0.47810126  0.14994015  0.87947805    -0.19100
C439        C  0.51357675  0.17323962  0.91179376    -0.20900
C440        C  0.52852299  0.19861230  0.92119972    -0.13500
C441        C  0.02131060  0.22666373  0.90986527     0.03200
C442        C  0.99904848  0.22895941  0.88884370    -0.25600
H443        H  0.93662615  0.18192746  0.82642407     0.08300
H444        H  0.95871828  0.22697000  0.84661875     0.11900
H445        H  0.48420165  0.12839064  0.88806214     0.11800
H446        H  0.51954339  0.15183977  0.92076170     0.11500
H447        H  0.54572861  0.19643932  0.93723052     0.12100
H448        H  0.99378642  0.25044340  0.87957991     0.14000
C449        C  0.48011735  0.47669932  0.84051942    -0.06000
C450        C  0.47216099  0.44882448  0.82987269    -0.05900
C451        C  0.48717962  0.42339789  0.83911966    -0.24100
C452        C  0.50962656  0.42548035  0.85985554     0.18100
C453        C  0.01711939  0.45349480  0.87123941     0.15400
C454        C  0.50315472  0.47889697  0.86068415    -0.19100
C455        C  0.03819938  0.45546705  0.89326230    -0.20900
C456        C  0.05095238  0.42978280  0.90475972    -0.13500
C457        C  0.04359763  0.40193074  0.89367072     0.03200
C458        C  0.02334646  0.40004035  0.87080802    -0.25600
H459        H  0.45446575  0.94666576  0.81438419     0.08300
H460        H  0.48070745  0.40203596  0.83065617     0.11900
H461        H  0.00833399  0.50032852  0.86993828     0.11800
H462        H  0.04404507  0.47677308  0.90225259     0.11500
H463        H  0.06617272  0.43159864  0.92258965     0.12100
H464        H  0.01693088  0.37851848  0.86262581     0.14000
C465        C  0.35999190  0.46775789  0.64879576    -0.06000
C466        C  0.35880829  0.44997843  0.67357093    -0.05900
C467        C  0.37280383  0.95933285  0.69864995    -0.24100
C468        C  0.38703294  0.98708578  0.69956741     0.18100
C469        C  0.38828868  0.50496316  0.67467105     0.15400
C470        C  0.37533743  0.49488818  0.64924780    -0.19100
C471        C  0.40138401  0.53318896  0.67582677    -0.20900
C472        C  0.41189342  0.04422848  0.70179527    -0.13500
C473        C  0.41057580  0.02669570  0.72680550     0.03200
C474        C  0.39888949  0.99773283  0.72531315    -0.25600
H475        H  0.34721289  0.42890714  0.67337019     0.08300
H476        H  0.37172498  0.94527309  0.71758644     0.11900
H477        H  0.37601149  0.50871810  0.63010075     0.11800
H478        H  0.40237190  0.54724333  0.65688149     0.11500
H479        H  0.42065145  0.06660553  0.70247298     0.12100
H480        H  0.39733190  0.98414074  0.74455844     0.14000
C481        C  0.39367478  0.03077968  0.89956415    -0.06000
C482        C  0.39615920  0.04766296  0.92452445    -0.05900
C483        C  0.38162378  0.03852223  0.94967041    -0.24100
C484        C  0.36532046  0.01190814  0.95025988     0.18100
C485        C  0.36295065  0.49485793  0.92519737     0.15400
C486        C  0.37673996  0.00461727  0.89985282    -0.19100
C487        C  0.34786788  0.46761285  0.92604194    -0.20900
C488        C  0.33618836  0.45681519  0.95189407    -0.13500
C489        C  0.33864126  0.47353140  0.97702836     0.03200
C490        C  0.35246937  0.00146598  0.97582210    -0.25600
H491        H  0.40900597  0.06799623  0.92441931     0.08300
H492        H  0.38367635  0.05187296  0.96879602     0.11900
H493        H  0.37501748  0.49155984  0.88058463     0.11800
H494        H  0.34608820  0.45415844  0.90695738     0.11500
H495        H  0.32590853  0.43507894  0.95241776     0.12100
H496        H  0.35497101  0.01431207  0.99524180     0.14000
C497        C  0.29591088  0.34751451  0.60913750    -0.06000
C498        C  0.30900090  0.31991570  0.60412366    -0.05900
C499        C  0.29765048  0.29442240  0.61769884    -0.26100
C500        C  0.27239056  0.29623929  0.63540898     0.18100
C501        C  0.25924728  0.32408920  0.64041538     0.15400
C502        C  0.27150252  0.34950888  0.62779467    -0.19100
C503        C  0.23324617  0.32598575  0.65686512    -0.20900
C504        C  0.21954232  0.30029598  0.66731774    -0.13500
C505        C  0.23207274  0.27242557  0.66214195     0.03200
C506        C  0.25908232  0.27061930  0.64693054    -0.25600
H507        H  0.32780343  0.31812695  0.58973494     0.08300
H508        H  0.30793746  0.27320095  0.61356481     0.11900
H509        H  0.26100783  0.37080599  0.63124927     0.11800
H510        H  0.22289721  0.34724340  0.66070747     0.11500
H511        H  0.19876926  0.30216006  0.67887643     0.12100
H512        H  0.26874440  0.24915941  0.64246353     0.14000
C513        C  0.27101793  0.02195622  0.59185085    -0.06000
C514        C  0.27780202  0.04969983  0.57970250    -0.05900
C515        C  0.26257847  0.07502546  0.58859772    -0.24100
C516        C  0.24109102  0.07303814  0.61045262     0.18100
C517        C  0.23437949  0.04521521  0.62301193     0.15400
C518        C  0.24895166  0.01980920  0.61322043    -0.19100
C519        C  0.21404584  0.04343182  0.64587088    -0.20900
C520        C  0.20127127  0.06918549  0.65691015    -0.13500
C521        C  0.20787945  0.09695075  0.64463873     0.03200
C522        C  0.22722994  0.09858026  0.62086470    -0.25600
H523        H  0.29478181  0.05173303  0.56330298     0.08300
H524        H  0.26813511  0.09625867  0.57892241     0.11900
H525        H  0.24402514  0.99848808  0.62309345     0.11800
H526        H  0.20885048  0.02225983  0.65586039     0.11500
H527        H  0.18672164  0.06749391  0.67539901     0.12100
H528        H  0.23304226  0.11997845  0.61163670     0.14000
C529        C  0.40719036  0.40584351  0.53108979    -0.06000
C530        C  0.43423615  0.42094015  0.53362415    -0.05900
C531        C  0.45944304  0.41051510  0.01949987    -0.24100
C532        C  0.45770089  0.38529482  0.00206395     0.18100
C533        C  0.43033823  0.37058026  0.49855687     0.15400
C534        C  0.40540817  0.38069724  0.51344426    -0.19100
C535        C  0.42828790  0.34618223  0.48006176    -0.20900
C536        C  0.45341627  0.33597249  0.96564767    -0.13500
C537        C  0.48089790  0.34958298  0.97016601     0.03200
C538        C  0.48288892  0.37440289  0.98813204    -0.25600
H539        H  0.43583634  0.44066667  0.54663686     0.08300
H540        H  0.48026939  0.42218524  0.02207827     0.11900
H541        H  0.38434474  0.36947861  0.51061948     0.11800
H542        H  0.40730027  0.33497499  0.47690088     0.11500
H543        H  0.45164723  0.31690914  0.95176053     0.12100
H544        H  0.50412369  0.38524491  0.99117630     0.14000
C545        C  0.15712333  0.34511510  0.96901857    -0.06000
C546        C  0.18385601  0.32947966  0.96702162    -0.05900
C547        C  0.20901525  0.33936723  0.98164324    -0.24100
C548        C  0.20755319  0.36453808  0.99915276     0.18100
C549        C  0.18068140  0.38002219  0.50175991     0.15400
C550        C  0.15574329  0.37055633  0.98638773    -0.19100
C551        C  0.17897248  0.40448219  0.52025234    -0.20900
C552        C  0.20397870  0.41381961  0.53553773    -0.13500
C553        C  0.23104651  0.39917238  0.53200514     0.03200
C554        C  0.23268315  0.37442866  0.51387633    -0.25600
H555        H  0.18523291  0.30958774  0.95423144     0.08300
H556        H  0.22950977  0.32708381  0.97959760     0.11900
H557        H  0.13496493  0.38232232  0.98876697     0.11800
H558        H  0.15834946  0.41644825  0.52277396     0.11500
H559        H  0.20247595  0.43301068  0.54928023     0.12100
H560        H  0.25350336  0.36294436  0.01148816     0.14000
O561        O  0.37530553  0.94479674  0.04664175    -0.82500
C562        C  0.25851306  0.91029464  0.04498265     0.96800
O563        O  0.28086144  0.91222628  0.02891475    -0.71700
O564        O  0.33119923  0.93230407  0.00855636    -0.75300
Al565      Al  0.31987195  0.90706295  0.04072834     1.49000
C566        C  0.33120036  0.96024834  0.00512476     0.92100
O567        O  0.31503160  0.99627007  0.07817101    -0.81500
O568        O  0.31740544  0.95243745  0.12268014    -0.75000
Al569      Al  0.34234862  0.96711537  0.06288555     1.90100
O570        O  0.27414712  0.97070118  0.08454022    -0.74100
O571        O  0.30587306  0.89824745  0.10807597    -0.74000
O572        O  0.26036473  0.91577624  0.07164327    -0.79600
O573        O  0.30847749  0.87530059  0.06699835    -0.77800
O574        O  0.31781870  0.93625516  0.06606532    -1.13900
O575        O  0.35935018  0.89890203  0.04996391    -0.73100
C576        C  0.37972169  0.91713432  0.04423217     0.97600
C577        C  0.28754276  0.99513704  0.08376083     0.94000
Al578      Al  0.29157809  0.93446112  0.09441507     1.55600
O579        O  0.32801421  0.97710882  0.02629991    -0.77800
C580        C  0.30523002  0.87472698  0.09398165     0.98100
C581        C  0.34477293  0.95907237  0.12229985     0.93000
O582        O  0.35910274  0.96035452  0.09909944    -0.83100
O583        O  0.44366000  0.62369369  0.31538011    -0.82500
C584        C  0.46342339  0.50368307  0.33268070     0.96800
O585        O  0.47706065  0.52798007  0.33270129    -0.71700
O586        O  0.49079919  0.58265825  0.31868733    -0.75300
Al587      Al  0.46050860  0.56435190  0.34291116     1.49000
C588        C  0.49178577  0.58828497  0.29193359     0.92100
O589        O  0.41759924  0.56739849  0.25858086    -0.81500
O590        O  0.37513041  0.55503974  0.29879076    -0.75000
Al591      Al  0.43058654  0.59221971  0.29010040     1.90100
O592        O  0.42105029  0.52237653  0.27643266    -0.74100
O593        O  0.39314165  0.53903236  0.35026631    -0.74000
O594        O  0.43580913  0.50280200  0.32802741    -0.79600
O595        O  0.43553279  0.54653437  0.37237747    -0.77800
O596        O  0.43327507  0.56291046  0.31560568    -1.13900
O597        O  0.44750789  0.60098947  0.35678887    -0.73100
C598        C  0.44824516  0.62447186  0.34216009     0.97600
C599        C  0.41754784  0.53949037  0.25521504     0.94000
Al600      Al  0.40834850  0.53230066  0.31362418     1.55600
O601        O  0.46895953  0.58651049  0.27665880    -0.77800
C602        C  0.40815030  0.54003000  0.37292366     0.98100
C603        C  0.37092721  0.58276776  0.29672516     0.93000
O604        O  0.39172193  0.60075041  0.30125962    -0.83100
O605        O  0.18781601  0.74593182  0.17335902    -0.82500
C606        C  0.19849071  0.62479120  0.15849776     0.96800
O607        O  0.19846587  0.64839799  0.14397226    -0.71700
O608        O  0.18808509  0.70349314  0.12890644    -0.75300
Al609      Al  0.21205436  0.68475628  0.15829926     1.49000
C610        C  0.16080762  0.71015443  0.12783440     0.92100
O611        O  0.12593506  0.69400648  0.20169871    -0.81500
O612        O  0.16834195  0.68148942  0.24261619    -0.75000
Al613      Al  0.15966462  0.71665124  0.18719659     1.90100
O614        O  0.14233141  0.64830455  0.19992848    -0.74100
O615        O  0.21961497  0.66215252  0.22426013    -0.74000
O616        O  0.19387928  0.62544841  0.18531896    -0.79600
O617        O  0.24168243  0.66573652  0.18219738    -0.77800
O618        O  0.18438509  0.68606154  0.18543313    -1.13900
O619        O  0.22908439  0.72084940  0.16929668    -0.73100
C620        C  0.21560092  0.74517147  0.16939872     0.97600
C621        C  0.12158727  0.66630763  0.20415671     0.94000
Al622      Al  0.18121626  0.65671992  0.21090936     1.55600
O623        O  0.14509154  0.71023540  0.15019994    -0.77800
C624        C  0.24246110  0.66016761  0.20891441     0.98100
C625        C  0.16800298  0.70941235  0.24568800     0.93000
O626        O  0.17169589  0.72643839  0.22442967    -0.83100
O627        O  0.00982923  0.83258492  0.43072477    -0.82500
C628        C  0.12956540  0.83358203  0.45592368     0.96800
O629        O  0.10873643  0.85141964  0.45111207    -0.71700
O630        O  0.05713754  0.87344641  0.43470634    -0.75300
Al631      Al  0.06939804  0.84207367  0.46077660     1.49000
C632        C  0.05325931  0.87424213  0.40779800     0.92100
O633        O  0.06567524  0.79622150  0.37881069    -0.81500
O634        O  0.06522702  0.75291856  0.42318204    -0.75000
Al635      Al  0.04059732  0.81419933  0.40759206     1.90100
O636        O  0.10828728  0.78970475  0.40070728    -0.74100
O637        O  0.07962513  0.77231971  0.47460703    -0.74000
O638        O  0.12559264  0.80587877  0.45289062    -0.79600
O639        O  0.08162675  0.81707230  0.49270240    -0.77800
O640        O  0.06752434  0.81299585  0.43526347    -1.13900
O641        O  0.03054284  0.83588770  0.47321135    -0.73100
C642        C  0.00817046  0.83801240  0.45735213     0.97600
C643        C  0.09303660  0.78984043  0.37810972     0.94000
Al644      Al  0.09263655  0.78271531  0.43760629     1.55600
O645        O  0.05409201  0.85082720  0.39342901    -0.77800
C646        C  0.08267160  0.78914234  0.49580860     0.98100
C647        C  0.03758201  0.75353824  0.41834659     0.93000
O648        O  0.02383062  0.77771323  0.41829553    -0.83100
C649        C  0.14736536  0.71992748  0.10066236    -0.06000
C650        C  0.15732150  0.70877942  0.07436839    -0.05900
C651        C  0.14497239  0.71897252  0.04868307    -0.24100
C652        C  0.12315232  0.74108578  0.04896480     0.18100
C653        C  0.11342708  0.75290562  0.07533234     0.15400
C654        C  0.12519505  0.74181051  0.10103789    -0.19100
C655        C  0.09275568  0.77615886  0.07544071    -0.20900
C656        C  0.08220006  0.78794761  0.04955314    -0.13500
C657        C  0.09137605  0.77586883  0.02338418     0.03200
C658        C  0.11156189  0.75220617  0.02326284    -0.25600
H659        H  0.17449715  0.69206863  0.07374442     0.08300
H660        H  0.15285431  0.70995078  0.02857105     0.11900
H661        H  0.11788704  0.75096076  0.12131818     0.11800
H662        H  0.08531595  0.78566613  0.09549471     0.11500
H663        H  0.06695005  0.80644329  0.04991304     0.12100
H664        H  0.11933980  0.74336685  0.00300666     0.14000
C665        C  0.15983645  0.72262300  0.27338164    -0.06000
C666        C  0.16912870  0.71033412  0.29957043    -0.05900
C667        C  0.15951755  0.72257070  0.32552512    -0.24100
C668        C  0.13964416  0.74654044  0.32551966     0.18100
C669        C  0.12987428  0.75862589  0.29915193     0.15400
C670        C  0.14053442  0.74702434  0.27335384    -0.19100
C671        C  0.10884163  0.78148353  0.29894651    -0.20900
C672        C  0.09708538  0.79195034  0.32469407    -0.13500
C673        C  0.10687881  0.78040310  0.35101231     0.03200
C674        C  0.12855493  0.75798897  0.35133432    -0.25600
H675        H  0.18382454  0.69138202  0.29991240     0.08300
H676        H  0.16702800  0.71287093  0.34554671     0.11900
H677        H  0.13274884  0.75614829  0.25314691     0.11800
H678        H  0.10096420  0.79075077  0.27886792     0.11500
H679        H  0.08028497  0.80905662  0.32407469     0.12100
H680        H  0.13573351  0.74854549  0.37161040     0.14000
C681        C  0.34331893  0.59444932  0.28466508    -0.06000
C682        C  0.31583296  0.58099016  0.29016361    -0.05900
C683        C  0.29033035  0.59173331  0.27666919    -0.24100
C684        C  0.29234174  0.61535084  0.25686318     0.18100
C685        C  0.32017345  0.62828029  0.25057966     0.15400
C686        C  0.34530322  0.61811815  0.26492990    -0.19100
C687        C  0.32250728  0.65086064  0.22973774    -0.20900
C688        C  0.29727188  0.66094398  0.21546015    -0.13500
C689        C  0.26947278  0.64906677  0.22247779     0.03200
C690        C  0.26710060  0.62615940  0.24303412    -0.25600
H691        H  0.31413353  0.56236279  0.30491621     0.08300
H692        H  0.26914876  0.58136327  0.28140048     0.11900
H693        H  0.36670556  0.62794065  0.25991764     0.11800
H694        H  0.34382616  0.66066301  0.22448132     0.11500
H695        H  0.29931010  0.67846831  0.19952178     0.12100
H696        H  0.24559174  0.61653249  0.24797665     0.14000
C697        C  0.01914855  0.59945199  0.27818968    -0.06000
C698        C  0.04703900  0.58905214  0.28651394    -0.05900
C699        C  0.07251558  0.59962924  0.27268442    -0.24100
C700        C  0.07034028  0.62127027  0.25093881     0.18100
C701        C  0.04237997  0.63267988  0.24316864     0.15400
C702        C  0.01692273  0.62133463  0.25656371    -0.19100
C703        C  0.04046532  0.65540725  0.22239127    -0.20900
C704        C  0.06618181  0.66668965  0.20934683    -0.13500
C705        C  0.09383488  0.65461942  0.21629453     0.03200
C706        C  0.09573537  0.63195624  0.23709664    -0.25600
H707        H  0.54878718  0.57189649  0.30303637     0.08300
H708        H  0.09391724  0.59099344  0.27905229     0.11900
H709        H  0.99535691  0.62990582  0.25054663     0.11800
H710        H  0.01916305  0.66463163  0.21649623     0.11500
H711        H  0.06450829  0.68451591  0.19371205     0.12100
H712        H  0.11722580  0.62323503  0.24317465     0.14000
C713        C  0.45818617  0.65207207  0.35609828    -0.06000
C714        C  0.95136184  0.67987370  0.34472976    -0.05900
C715        C  0.96401642  0.70551334  0.35625284    -0.24100
C716        C  0.98467569  0.70344221  0.37868524     0.18100
C717        C  0.49150150  0.67561699  0.39042086     0.15400
C718        C  0.47765608  0.65016097  0.37965261    -0.19100
C719        C  0.51293949  0.67344997  0.41217353    -0.20900
C720        C  0.52802157  0.69877483  0.42150263    -0.13500
C721        C  0.02130510  0.72654069  0.40996294     0.03200
C722        C  0.99890970  0.72884419  0.38907173    -0.25600
H723        H  0.93639784  0.68184287  0.32668924     0.08300
H724        H  0.95836533  0.72688543  0.34702693     0.11900
H725        H  0.48342391  0.62864423  0.38853295     0.11800
H726        H  0.51855297  0.65208950  0.42144814     0.11500
H727        H  0.54496641  0.69661684  0.43779372     0.12100
H728        H  0.99347160  0.75035545  0.37996926     0.14000
C729        C  0.47985698  0.97665454  0.34066729    -0.06000
C730        C  0.47211320  0.94879124  0.32985569    -0.05900
C731        C  0.48718183  0.92339681  0.33912353    -0.24100
C732        C  0.50945803  0.92550230  0.36003420     0.18100
C733        C  0.01763464  0.95343365  0.37071393     0.15400
C734        C  0.50266991  0.97886983  0.36106176    -0.19100
C735        C  0.03901461  0.95538656  0.39247099    -0.20900
C736        C  0.05157240  0.92966504  0.40410780    -0.13500
C737        C  0.04372679  0.90178690  0.39339553     0.03200
C738        C  0.02320681  0.89989994  0.37076538    -0.25600
H739        H  0.45436043  0.44679037  0.31446288     0.08300
H740        H  0.48090562  0.90204310  0.33050864     0.11900
H741        H  0.00929934  0.00034427  0.36911331     0.11800
H742        H  0.04523251  0.97671874  0.40117087     0.11500
H743        H  0.06703157  0.93147879  0.42174416     0.12100
H744        H  0.01643385  0.87836684  0.36287571     0.14000
C745        C  0.35989678  0.96785418  0.14875820    -0.06000
C746        C  0.35877245  0.95003452  0.17350915    -0.05900
C747        C  0.37263345  0.45933147  0.19877015    -0.24100
C748        C  0.38689994  0.48706332  0.19970469     0.18100
C749        C  0.38804546  0.00512461  0.17469309     0.15400
C750        C  0.37513057  0.99504416  0.14925350    -0.19100
C751        C  0.40104725  0.03339009  0.17588847    -0.20900
C752        C  0.41182394  0.54417562  0.20194685    -0.13500
C753        C  0.41036758  0.52668487  0.22697712     0.03200
C754        C  0.39864979  0.49773669  0.22548462    -0.25600
H755        H  0.34725448  0.92892154  0.17327640     0.08300
H756        H  0.37144574  0.44530430  0.21772380     0.11900
H757        H  0.37575176  0.00890590  0.13012646     0.11800
H758        H  0.40197569  0.04748157  0.15696636     0.11500
H759        H  0.42061463  0.56653992  0.20262602     0.12100
H760        H  0.39698831  0.48418011  0.24474590     0.14000
C761        C  0.39357222  0.53095638  0.39972243    -0.06000
C762        C  0.39582380  0.54793100  0.42464346    -0.05900
C763        C  0.38127409  0.53873141  0.44976267    -0.24100
C764        C  0.36518962  0.51198343  0.45035753     0.18100
C765        C  0.36321999  0.99470807  0.42522095     0.15400
C766        C  0.37687507  0.50464743  0.40001881    -0.19100
C767        C  0.34832244  0.96736254  0.42606310    -0.20900
C768        C  0.33656964  0.95656308  0.45188226    -0.13500
C769        C  0.33877268  0.97336627  0.47698482     0.03200
C770        C  0.35230898  0.50150781  0.47589066    -0.25600
H771        H  0.40848743  0.56837840  0.42452335     0.08300
H772        H  0.38313486  0.55215193  0.46886127     0.11900
H773        H  0.37549341  0.99139588  0.38066182     0.11800
H774        H  0.34673325  0.95384451  0.40700444     0.11500
H775        H  0.32642879  0.93476216  0.45240819     0.12100
H776        H  0.35462244  0.51442599  0.49528743     0.14000
C777        C  0.29592369  0.84758348  0.10912506    -0.06000
C778        C  0.30896691  0.81997663  0.10403879    -0.05900
C779        C  0.29764158  0.79448003  0.11762806    -0.26100
C780        C  0.27244649  0.79630189  0.13542397     0.18100
C781        C  0.25935752  0.82416084  0.14051382     0.15400
C782        C  0.27159521  0.84958276  0.12788048    -0.19100
C783        C  0.23341399  0.82606470  0.15704835    -0.20900
C784        C  0.21969900  0.80037465  0.16748693    -0.13500
C785        C  0.23216699  0.77249607  0.16221668     0.03200
C786        C  0.25913555  0.77067976  0.14693877    -0.25600
H787        H  0.32770981  0.81818316  0.08957774     0.08300
H788        H  0.30788753  0.77325219  0.11343137     0.11900
H789        H  0.26113514  0.87088594  0.13139572     0.11800
H790        H  0.22310824  0.84732982  0.16095833     0.11500
H791        H  0.19896028  0.80224541  0.17910236     0.12100
H792        H  0.26874850  0.74921372  0.14240208     0.14000
C793        C  0.27104485  0.52201114  0.09189923    -0.06000
C794        C  0.27793664  0.54975996  0.07981694    -0.05900
C795        C  0.26271813  0.57510212  0.08867375    -0.24100
C796        C  0.24112045  0.57312617  0.11042585     0.18100
C797        C  0.23429193  0.54529818  0.12291597     0.15400
C798        C  0.24886580  0.51987641  0.11316090    -0.19100
C799        C  0.21384154  0.54352397  0.14567782    -0.20900
C800        C  0.20107030  0.56928906  0.15669666    -0.13500
C801        C  0.20779934  0.59705856  0.14449642     0.03200
C802        C  0.22726341  0.59868261  0.12081060    -0.25600
H803        H  0.29500182  0.55178639  0.06349998     0.08300
H804        H  0.26836427  0.59633779  0.07905304     0.11900
H805        H  0.24385026  0.49855226  0.12298449     0.11800
H806        H  0.20855283  0.52234865  0.15561367     0.11500
H807        H  0.18642932  0.56760192  0.17511837     0.12100
H808        H  0.23316649  0.62008294  0.11164207     0.14000
C809        C  0.40711066  0.90583871  0.03101570    -0.06000
C810        C  0.43413431  0.92099935  0.03342169    -0.05900
C811        C  0.45943944  0.91025645  0.51971558    -0.24100
C812        C  0.45765290  0.88513339  0.50215443     0.18100
C813        C  0.43025464  0.87046052  0.99859112     0.15400
C814        C  0.40533888  0.88059856  0.01348964    -0.19100
C815        C  0.42821421  0.84596380  0.98021507    -0.20900
C816        C  0.45330174  0.83601708  0.46548566    -0.13500
C817        C  0.48081420  0.84951350  0.47014092     0.03200
C818        C  0.48283718  0.87423114  0.48823280    -0.25600
H819        H  0.43572857  0.94079312  0.04633964     0.08300
H820        H  0.48029958  0.92183709  0.52240306     0.11900
H821        H  0.38429331  0.86931976  0.01076228     0.11800
H822        H  0.40724485  0.83468981  0.97715878     0.11500
H823        H  0.45150824  0.81703398  0.45149925     0.12100
H824        H  0.50409693  0.88498990  0.49138202     0.14000
C825        C  0.15712374  0.84514625  0.46882531    -0.06000
C826        C  0.18395951  0.82974391  0.46649664    -0.05900
C827        C  0.20914631  0.83968574  0.48104237    -0.24100
C828        C  0.20760717  0.86465728  0.49881361     0.18100
C829        C  0.18063350  0.88004097  0.00178185     0.15400
C830        C  0.15566120  0.87038577  0.48645833    -0.19100
C831        C  0.17889646  0.90445147  0.02033136    -0.20900
C832        C  0.20390129  0.91379793  0.03560961    -0.13500
C833        C  0.23098961  0.89920689  0.03201269     0.03200
C834        C  0.23265003  0.87449928  0.01384270    -0.25600
H835        H  0.18539909  0.81000605  0.45349241     0.08300
H836        H  0.22972538  0.82759553  0.47873384     0.11900
H837        H  0.13480388  0.88195418  0.48908867     0.11800
H838        H  0.15825537  0.91637698  0.02289623     0.11500
H839        H  0.20238151  0.93295696  0.04939204     0.12100
H840        H  0.25364699  0.86328893  0.51084169     0.14000
O841        O  0.37526945  0.94477703  0.54665392    -0.82500
C842        C  0.25848036  0.91027748  0.54495755     0.96800
O843        O  0.28083199  0.91223103  0.52889352    -0.71700
O844        O  0.33119858  0.93227964  0.50856003    -0.75300
Al845      Al  0.31983875  0.90704800  0.54072020     1.49000
C846        C  0.33120132  0.96022190  0.50512238     0.92100
O847        O  0.31499839  0.99624863  0.57816680    -0.81500
O848        O  0.31739233  0.95240345  0.62268776    -0.75000
Al849      Al  0.34231287  0.96709910  0.56288039     1.90100
O850        O  0.27411972  0.97067549  0.58455767    -0.74100
O851        O  0.30584637  0.89821503  0.60805928    -0.74000
O852        O  0.26033027  0.91575433  0.57162291    -0.79600
O853        O  0.30841475  0.87528621  0.56697124    -0.77800
O854        O  0.31778685  0.93623682  0.56606206    -1.13900
O855        O  0.35930921  0.89887781  0.54997331    -0.73100
C856        C  0.37968441  0.91711353  0.54426068     0.97600
C857        C  0.28751693  0.99510989  0.58378467     0.94000
Al858      Al  0.29155106  0.93443366  0.59441324     1.55600
O859        O  0.32797585  0.97708401  0.52629093    -0.77800
C860        C  0.30516745  0.87470433  0.59395290     0.98100
C861        C  0.34475731  0.95905799  0.62229499     0.93000
O862        O  0.35907205  0.96034958  0.59908799    -0.83100
O863        O  0.44370379  0.62364377  0.81535400    -0.82500
C864        C  0.46364982  0.50365268  0.83254704     0.96800
O865        O  0.47724005  0.52797634  0.83263908    -0.71700
O866        O  0.49088436  0.58271527  0.81870333    -0.75300
Al867      Al  0.46059362  0.56430787  0.84286350     1.49000
C868        C  0.49190721  0.58837100  0.79195506     0.92100
O869        O  0.41780384  0.56734376  0.75846853    -0.81500
O870        O  0.37529359  0.55489655  0.79861515    -0.75000
Al871      Al  0.43071110  0.59216380  0.79002704     1.90100
O872        O  0.42131245  0.52232280  0.77630602    -0.74100
O873        O  0.39325883  0.53886101  0.85011613    -0.74000
O874        O  0.43603635  0.50273577  0.82788627    -0.79600
O875        O  0.43560642  0.54641633  0.87228376    -0.77800
O876        O  0.43340464  0.56284215  0.81551884    -1.13900
O877        O  0.44748918  0.60089936  0.85675042    -0.73100
C878        C  0.44825016  0.62439434  0.84214256     0.97600
C879        C  0.41779153  0.53943659  0.75509362     0.94000
Al880      Al  0.40853472  0.53219420  0.81348203     1.55600
O881        O  0.46911576  0.58651514  0.77663962    -0.77800
C882        C  0.40822755  0.53988835  0.87279835     0.98100
C883        C  0.37105337  0.58262132  0.79654964     0.93000
O884        O  0.39181597  0.60062828  0.80113335    -0.83100
O885        O  0.18767418  0.74587333  0.67327492    -0.82500
C886        C  0.19863378  0.62475731  0.65855671     0.96800
O887        O  0.19856800  0.64835167  0.64400733    -0.71700
O888        O  0.18807797  0.70344232  0.62890981    -0.75300
Al889      Al  0.21207722  0.68475170  0.65831367     1.49000
C890        C  0.16078369  0.71003614  0.62781229     0.92100
O891        O  0.12592934  0.69382380  0.70169184    -0.81500
O892        O  0.16841234  0.68150471  0.74263953    -0.75000
Al893      Al  0.15959688  0.71653744  0.68715611     1.90100
O894        O  0.14245134  0.64816575  0.70002497    -0.74100
O895        O  0.21972379  0.66223951  0.72428533    -0.74000
O896        O  0.19403523  0.62543354  0.68538266    -0.79600
O897        O  0.24175195  0.66579358  0.68220539    -0.77800
O898        O  0.18440162  0.68601267  0.68544132    -1.13900
O899        O  0.22901260  0.72088382  0.66931677    -0.73100
C900        C  0.21546725  0.74517327  0.66935087     0.97600
C901        C  0.12165012  0.66611729  0.70418947     0.94000
Al902      Al  0.18132178  0.65670432  0.71095977     1.55600
O903        O  0.14504012  0.71002158  0.65016196    -0.77800
C904        C  0.24255708  0.66024533  0.70892389     0.98100
C905        C  0.16800522  0.70943561  0.74566365     0.93000
O906        O  0.17160599  0.72642538  0.72436527    -0.83100
O907        O  0.00993758  0.83264488  0.93068101    -0.82500
C908        C  0.12963239  0.83362303  0.95594263     0.96800
O909        O  0.10880275  0.85146763  0.95114090    -0.71700
O910        O  0.05716114  0.87350828  0.93481647    -0.75300
Al911      Al  0.06946712  0.84208692  0.96079680     1.49000
C912        C  0.05329026  0.87438375  0.90791223     0.92100
O913        O  0.06588656  0.79645516  0.87872141    -0.81500
O914        O  0.06532511  0.75299923  0.92309401    -0.75000
Al915      Al  0.04074562  0.81434150  0.90751657     1.90100
O916        O  0.10842642  0.78979012  0.90071001    -0.74100
O917        O  0.07966898  0.77232688  0.97455362    -0.74000
O918        O  0.12565755  0.80592000  0.95289957    -0.79600
O919        O  0.08171249  0.81705721  0.99267848    -0.77800
O920        O  0.06762377  0.81306053  0.93522922    -1.13900
O921        O  0.03061559  0.83582537  0.97319986    -0.73100
C922        C  0.00825614  0.83799728  0.95732596     0.97600
C923        C  0.09323994  0.79003171  0.87807564     0.94000
Al924      Al  0.09272259  0.78276849  0.93757104     1.55600
O925        O  0.05424637  0.85102221  0.89347056    -0.77800
C926        C  0.08272648  0.78912727  0.99576987     0.98100
C927        C  0.03769475  0.75364552  0.91819649     0.93000
O928        O  0.02396475  0.77783053  0.91808373    -0.83100
C929        C  0.14736920  0.71986439  0.60063734    -0.06000
C930        C  0.15761252  0.70903604  0.57431705    -0.05900
C931        C  0.14535818  0.71933656  0.54863075    -0.24100
C932        C  0.12333242  0.74124152  0.54894102     0.18100
C933        C  0.11330497  0.75274841  0.57533465     0.15400
C934        C  0.12499170  0.74154225  0.60103600    -0.19100
C935        C  0.09241077  0.77580660  0.57547666    -0.20900
C936        C  0.08190936  0.78768971  0.54960201    -0.13500
C937        C  0.09137239  0.77588976  0.52340807     0.03200
C938        C  0.11181072  0.75244884  0.52324737    -0.25600
H939        H  0.17495563  0.69250030  0.57366868     0.08300
H940        H  0.15347066  0.71056211  0.52849946     0.11900
H941        H  0.11745829  0.75046037  0.62133784     0.11800
H942        H  0.08473554  0.78507857  0.59555301     0.11500
H943        H  0.06645485  0.80601369  0.54999167     0.12100
H944        H  0.11980054  0.74383464  0.50297457     0.14000
C945        C  0.15992470  0.72269236  0.77337089    -0.06000
C946        C  0.16890439  0.71015411  0.79955622    -0.05900
C947        C  0.15929830  0.72237547  0.82551707    -0.24100
C948        C  0.13973103  0.74659381  0.82552027     0.18100
C949        C  0.13030419  0.75897347  0.79916064     0.15400
C950        C  0.14097517  0.74737698  0.77336120    -0.19100
C951        C  0.10956005  0.78209852  0.79895829    -0.20900
C952        C  0.09771801  0.79251313  0.82469394    -0.13500
C953        C  0.10716222  0.78064914  0.85100165     0.03200
C954        C  0.12858318  0.75799340  0.85132951    -0.25600
H955        H  0.18333087  0.69099548  0.79989303     0.08300
H956        H  0.16654658  0.71245842  0.84553236     0.11900
H957        H  0.13342803  0.75671857  0.75316078     0.11800
H958        H  0.10195128  0.79160431  0.77888422     0.11500
H959        H  0.08112627  0.80982213  0.82407525     0.12100
H960        H  0.13549268  0.74832234  0.87159597     0.14000
C961        C  0.34343798  0.59428216  0.78446435    -0.06000
C962        C  0.31598663  0.58066552  0.78976099    -0.05900
C963        C  0.29048722  0.59141140  0.77625955    -0.24100
C964        C  0.29246718  0.61520207  0.75664592     0.18100
C965        C  0.32026686  0.62829439  0.75055367     0.15400
C966        C  0.34539012  0.61811665  0.76490964    -0.19100
C967        C  0.32257705  0.65105984  0.72989702    -0.20900
C968        C  0.29734688  0.66116600  0.71562214    -0.13500
C969        C  0.26957329  0.64912360  0.72246295     0.03200
C970        C  0.26722589  0.62603183  0.74282686    -0.25600
H971        H  0.31430872  0.56191292  0.80436607     0.08300
H972        H  0.26933346  0.58091559  0.78083916     0.11900
H973        H  0.36676568  0.62807137  0.76004299     0.11800
H974        H  0.34387234  0.66099182  0.72478613     0.11500
H975        H  0.29936431  0.67883513  0.69983168     0.12100
H976        H  0.24573721  0.61628663  0.74762825     0.14000
C977        C  0.01909360  0.59922716  0.77805237    -0.06000
C978        C  0.04694795  0.58856736  0.78617764    -0.05900
C979        C  0.07243054  0.59904359  0.77228399    -0.24100
C980        C  0.07030317  0.62084825  0.75068527     0.18100
C981        C  0.04238277  0.63248868  0.74310276     0.15400
C982        C  0.01691244  0.62123518  0.75654538    -0.19100
C983        C  0.04052253  0.65537376  0.72248647    -0.20900
C984        C  0.06625652  0.66662477  0.70945352    -0.13500
C985        C  0.09387308  0.65436878  0.71623669     0.03200
C986        C  0.09571251  0.63150001  0.73683730    -0.25600
H987        H  0.54900300  0.57279895  0.80371236     0.08300
H988        H  0.09380137  0.59022040  0.77850468     0.11900
H989        H  0.99537628  0.62998908  0.75067757     0.11800
H990        H  0.01925350  0.66476763  0.71673338     0.11500
H991        H  0.06462521  0.68459956  0.69397446     0.12100
H992        H  0.11717229  0.62261750  0.74279346     0.14000
C993        C  0.45821039  0.65196164  0.85612000    -0.06000
C994        C  0.95165976  0.67994134  0.84445162    -0.05900
C995        C  0.96437402  0.70558648  0.85589380    -0.24100
C996        C  0.98486523  0.70354964  0.87846948     0.18100
C997        C  0.49170253  0.67544254  0.89032139     0.15400
C998        C  0.47789351  0.64999258  0.87950137    -0.19100
C999        C  0.51333170  0.67323625  0.91189092    -0.20900
C1000       C  0.52835382  0.69857270  0.92127637    -0.13500
C1001       C  0.02139734  0.72666081  0.90983290     0.03200
C1002       C  0.99917010  0.72894277  0.88877701    -0.25600
H1003       H  0.93684175  0.68187741  0.82629507     0.08300
H1004       H  0.95890892  0.72692833  0.84649329     0.11900
H1005       H  0.48383853  0.62844702  0.88820021     0.11800
H1006       H  0.51913720  0.65184222  0.92097472     0.11500
H1007       H  0.54545046  0.69638493  0.93741435     0.12100
H1008       H  0.99391435  0.75042366  0.87950238     0.14000
C1009       C  0.48012992  0.97660985  0.84051504    -0.06000
C1010       C  0.47220634  0.94873253  0.82985101    -0.05900
C1011       C  0.48720485  0.92330757  0.83913968    -0.24100
C1012       C  0.50959669  0.92539485  0.85993251     0.18100
C1013       C  0.01721815  0.95352172  0.87113465     0.15400
C1014       C  0.50310020  0.97880893  0.86075042    -0.19100
C1015       C  0.03846531  0.95549604  0.89300874    -0.20900
C1016       C  0.05117276  0.92980125  0.90453820    -0.13500
C1017       C  0.04360380  0.90193464  0.89361725     0.03200
C1018       C  0.02317796  0.90003390  0.87090586    -0.25600
H1019       H  0.45437450  0.44675993  0.81445503     0.08300
H1020       H  0.48076518  0.90194462  0.83065624     0.11900
H1021       H  0.00863838  0.00039113  0.86968396     0.11800
H1022       H  0.04448201  0.97681752  0.90186123     0.11500
H1023       H  0.06653565  0.93162301  0.92225248     0.12100
H1024       H  0.01660152  0.87850264  0.86286251     0.14000
C1025       C  0.35990761  0.96784690  0.64874136    -0.06000
C1026       C  0.35884872  0.95001272  0.67348463    -0.05900
C1027       C  0.37273325  0.45930238  0.69874901    -0.24100
C1028       C  0.38705008  0.48701064  0.69964391     0.18100
C1029       C  0.38813726  0.00509892  0.67463006     0.15400
C1030       C  0.37514976  0.99503552  0.64921662    -0.19100
C1031       C  0.40115104  0.03336116  0.67581134    -0.20900
C1032       C  0.41206330  0.54408959  0.70182020    -0.13500
C1033       C  0.41060514  0.52661969  0.72686299     0.03200
C1034       C  0.39885143  0.49768373  0.72540011    -0.25600
H1035       H  0.34733519  0.92889717  0.67326620     0.08300
H1036       H  0.37155246  0.44528996  0.71771302     0.11900
H1037       H  0.37572976  0.00890572  0.63009440     0.11800
H1038       H  0.40203446  0.04746344  0.65689488     0.11500
H1039       H  0.42088266  0.56644355  0.70247821     0.12100
H1040       H  0.39718943  0.48414336  0.74467186     0.14000
C1041       C  0.39360096  0.53088909  0.89960703    -0.06000
C1042       C  0.39608855  0.54777802  0.92456387    -0.05900
C1043       C  0.38155083  0.53864512  0.94971211    -0.24100
C1044       C  0.36524187  0.51203407  0.95030620     0.18100
C1045       C  0.36303395  0.99473398  0.92514956     0.15400
C1046       C  0.37665982  0.50473206  0.89990057    -0.19100
C1047       C  0.34795784  0.96748400  0.92599385    -0.20900
C1048       C  0.33627657  0.95668355  0.95184601    -0.13500
C1049       C  0.33871834  0.97340356  0.97697899     0.03200
C1050       C  0.35239315  0.50159358  0.97587102    -0.25600
H1051       H  0.40893981  0.56810842  0.92445452     0.08300
H1052       H  0.38360675  0.55199842  0.96883565     0.11900
H1053       H  0.37510025  0.99144919  0.88053399     0.11800
H1054       H  0.34618224  0.95402987  0.90690873     0.11500
H1055       H  0.32599817  0.93494670  0.95236971     0.12100
H1056       H  0.35490188  0.51443674  0.99529162     0.14000
C1057       C  0.29580117  0.84757461  0.60907324    -0.06000
C1058       C  0.30890246  0.81997655  0.60408830    -0.05900
C1059       C  0.29755593  0.79449447  0.61768248    -0.26100
C1060       C  0.27229012  0.79632196  0.63538215     0.18100
C1061       C  0.25912989  0.82417080  0.64035467     0.15400
C1062       C  0.27138097  0.84958158  0.62771406    -0.19100
C1063       C  0.23311999  0.82607134  0.65679205    -0.20900
C1064       C  0.21942482  0.80038403  0.66726345    -0.13500
C1065       C  0.23197670  0.77251643  0.66212107     0.03200
C1066       C  0.25899383  0.77070974  0.64692562    -0.25600
H1067       H  0.32771397  0.81818104  0.58971159     0.08300
H1068       H  0.30785309  0.77327199  0.61357363     0.11900
H1069       H  0.26087985  0.87088048  0.63114434     0.11800
H1070       H  0.22275766  0.84732823  0.66060847     0.11500
H1071       H  0.19864369  0.80224575  0.67880880     0.12100
H1072       H  0.26867087  0.74925042  0.64248309     0.14000
C1073       C  0.27110292  0.52194860  0.59187914    -0.06000
C1074       C  0.27790935  0.54968273  0.57971907    -0.05900
C1075       C  0.26269095  0.57502379  0.58858612    -0.24100
C1076       C  0.24118393  0.57306365  0.61042525     0.18100
C1077       C  0.23444635  0.54525024  0.62299272     0.15400
C1078       C  0.24901462  0.51982830  0.61322920    -0.19100
C1079       C  0.21408995  0.54349095  0.64583340    -0.20900
C1080       C  0.20131890  0.56925731  0.65684822    -0.13500
C1081       C  0.20795464  0.59701487  0.64457322     0.03200
C1082       C  0.22732825  0.59862207  0.62081487    -0.25600
H1083       H  0.29490420  0.55169715  0.56333211     0.08300
H1084       H  0.26826719  0.59624758  0.57890229     0.11900
H1085       H  0.24406763  0.49851593  0.62310988     0.11800
H1086       H  0.20887302  0.52232732  0.65582857     0.11500
H1087       H  0.18674981  0.56758093  0.67532398     0.12100
H1088       H  0.23316009  0.62001320  0.61158343     0.14000
C1089       C  0.40707443  0.90582057  0.53106636    -0.06000
C1090       C  0.43416542  0.92079815  0.53376172    -0.05900
C1091       C  0.45938368  0.91048427  0.01931363    -0.24100
C1092       C  0.45764088  0.88519087  0.00197856     0.18100
C1093       C  0.43019970  0.87061091  0.49846918     0.15400
C1094       C  0.40525496  0.88076358  0.51330729    -0.19100
C1095       C  0.42812414  0.84630477  0.47986391    -0.20900
C1096       C  0.45336561  0.83569708  0.96577668    -0.13500
C1097       C  0.48082179  0.84941564  0.97013940     0.03200
C1098       C  0.48280513  0.87431780  0.98799662    -0.25600
H1099       H  0.43579337  0.94045530  0.54686867     0.08300
H1100       H  0.48018931  0.92222067  0.02177294     0.11900
H1101       H  0.38415763  0.86964415  0.51036347     0.11800
H1102       H  0.40710492  0.83519914  0.47657657     0.11500
H1103       H  0.45160627  0.81655935  0.95198404     0.12100
H1104       H  0.50402227  0.88522967  0.99092917     0.14000
C1105       C  0.15719446  0.84516763  0.96885137    -0.06000
C1106       C  0.18395365  0.82959235  0.96676383    -0.05900
C1107       C  0.20911390  0.83948222  0.98138031    -0.24100
C1108       C  0.20762221  0.86458720  0.99897551     0.18100
C1109       C  0.18053968  0.87991832  0.50187680     0.15400
C1110       C  0.15578671  0.87054798  0.98629761    -0.19100
C1111       C  0.17876080  0.90417579  0.52061061    -0.20900
C1112       C  0.20379537  0.91355917  0.53582622    -0.13500
C1113       C  0.23095749  0.89917205  0.53197745     0.03200
C1114       C  0.23266242  0.87461702  0.51361297    -0.25600
H1115       H  0.18534888  0.80974624  0.95390941     0.08300
H1116       H  0.22963096  0.82724806  0.97926796     0.11900
H1117       H  0.13498664  0.88226174  0.98874344     0.11800
H1118       H  0.15805984  0.91594785  0.52337645     0.11500
H1119       H  0.20222899  0.93258954  0.54976914     0.12100
H1120       H  0.25358473  0.86303129  0.01125936     0.14000
O1121       O  0.87528906  0.44474407  0.04665113    -0.82500
C1122       C  0.75847476  0.41028774  0.04494710     0.96800
O1123       O  0.78081562  0.41226691  0.02887185    -0.71700
O1124       O  0.83118190  0.43233209  0.00855119    -0.75300
Al1125     Al  0.81982971  0.40705507  0.04067470     1.49000
C1126       C  0.83120865  0.46027897  0.00515290     0.92100
O1127       O  0.81505022  0.49620079  0.07825715    -0.81500
O1128       O  0.81742400  0.45230034  0.12270899    -0.75000
Al1129     Al  0.84234723  0.46705866  0.06291966     1.90100
O1130       O  0.77415328  0.47064719  0.08462240    -0.74100
O1131       O  0.80586933  0.39813764  0.10800616    -0.74000
O1132       O  0.76033900  0.41573585  0.07161685    -0.79600
O1133       O  0.80840644  0.37525983  0.06688796    -0.77800
O1134       O  0.81780163  0.43620845  0.06605925    -1.13900
O1135       O  0.85930472  0.39884941  0.04989118    -0.73100
C1136       C  0.87969112  0.41708306  0.04421024     0.97600
C1137       C  0.78756939  0.49507397  0.08388492     0.94000
Al1138     Al  0.79157438  0.43437762  0.09441811     1.55600
O1139       O  0.82801404  0.47711464  0.02634587    -0.77800
C1140       C  0.80517176  0.37464667  0.09387024     0.98100
C1141       C  0.84479140  0.45893981  0.12232171     0.93000
O1142       O  0.85910841  0.46023668  0.09911612    -0.83100
O1143       O  0.94376661  0.12366943  0.31541812    -0.82500
C1144       C  0.96370411  0.00366251  0.33249845     0.96800
O1145       O  0.97730373  0.02798159  0.33258495    -0.71700
O1146       O  0.99094148  0.08274586  0.31870579    -0.75300
Al1147     Al  0.96066730  0.06430338  0.34286214     1.49000
C1148       C  0.99195821  0.08843230  0.29196264     0.92100
O1149       O  0.91781897  0.06740704  0.25849103    -0.81500
O1150       O  0.87533752  0.05494194  0.29866219    -0.75000
Al1151     Al  0.93075661  0.09220795  0.29006352     1.90100
O1152       O  0.92132076  0.02237268  0.27629632    -0.74100
O1153       O  0.89333122  0.03887618  0.35014404    -0.74000
O1154       O  0.93608515  0.00275919  0.32786380    -0.79600
O1155       O  0.93569871  0.04638188  0.37228800    -0.77800
O1156       O  0.93345862  0.06286724  0.31553306    -1.13900
O1157       O  0.94757506  0.10087650  0.35679180    -0.73100
C1158       C  0.94833376  0.12438554  0.34220591     0.97600
C1159       C  0.91776928  0.03950037  0.25509796     0.94000
Al1160     Al  0.90857963  0.03222682  0.31349386     1.55600
O1161       O  0.96916205  0.08656459  0.27665234    -0.77800
C1162       C  0.90831403  0.03987493  0.37281941     0.98100
C1163       C  0.87110085  0.08266681  0.29660403     0.93000
O1164       O  0.89186538  0.10067095  0.30119172    -0.83100
O1165       O  0.68768404  0.24582251  0.17326851    -0.82500
C1166       C  0.69865279  0.12471280  0.15859880     0.96800
O1167       O  0.69857126  0.14830039  0.14403880    -0.71700
O1168       O  0.68807505  0.20338575  0.12891720    -0.75300
Al1169     Al  0.71209252  0.18470687  0.15831647     1.49000
C1170       C  0.66078047  0.20997987  0.12782593     0.92100
O1171       O  0.62597137  0.19377316  0.20173112    -0.81500
O1172       O  0.66848533  0.18149102  0.24267487    -0.75000
Al1173     Al  0.65962076  0.21649235  0.18717464     1.90100
O1174       O  0.64251052  0.14811901  0.20009891    -0.74100
O1175       O  0.71979497  0.16224003  0.22429274    -0.74000
O1176       O  0.69408579  0.12539967  0.18542906    -0.79600
O1177       O  0.74178886  0.16575848  0.18219432    -0.77800
O1178       O  0.68443462  0.18597563  0.18546193    -1.13900
O1179       O  0.72903122  0.22084859  0.16929251    -0.73100
C1180       C  0.71547387  0.24513213  0.16931968     0.97600
C1181       C  0.62170384  0.16606698  0.20425051     0.94000
Al1182     Al  0.68138401  0.15668070  0.21099905     1.55600
O1183       O  0.64504577  0.20996170  0.15018244    -0.77800
C1184       C  0.74261527  0.16022773  0.20891540     0.98100
C1185       C  0.66805823  0.20942253  0.24569006     0.93000
O1186       O  0.67163898  0.22640432  0.22438146    -0.83100
O1187       O  0.50992640  0.33270262  0.43063296    -0.82500
C1188       C  0.62958667  0.33356491  0.45602349     0.96800
O1189       O  0.60877263  0.35142626  0.45120798    -0.71700
O1190       O  0.55714908  0.37351070  0.43485551    -0.75300
Al1191     Al  0.56942092  0.34206766  0.46082679     1.49000
C1192       C  0.55331714  0.37441321  0.40794678     0.92100
O1193       O  0.56590810  0.29648643  0.37871784    -0.81500
O1194       O  0.56521635  0.25299600  0.42312556    -0.75000
Al1195     Al  0.54074843  0.31438492  0.40749099     1.90100
O1196       O  0.60839856  0.28971689  0.40076341    -0.74100
O1197       O  0.57954709  0.27230629  0.47458964    -0.74000
O1198       O  0.62559236  0.30586339  0.45296795    -0.79600
O1199       O  0.58163031  0.31702888  0.49271719    -0.77800
O1200       O  0.56758445  0.31305403  0.43524334    -1.13900
O1201       O  0.53055394  0.33581366  0.47318401    -0.73100
C1202       C  0.50821695  0.33802033  0.45728382     0.97600
C1203       C  0.59324834  0.29000618  0.37810654     0.94000
Al1204     Al  0.59264456  0.28273280  0.43761425     1.55600
O1205       O  0.55431279  0.35106497  0.39348710    -0.77800
C1206       C  0.58262204  0.28909916  0.49580797     0.98100
C1207       C  0.53759508  0.25368251  0.41818239     0.93000
O1208       O  0.52390559  0.27788980  0.41800487    -0.83100
C1209       C  0.64736021  0.21981194  0.10064902    -0.06000
C1210       C  0.65765003  0.20903789  0.07432312    -0.05900
C1211       C  0.64540812  0.21935283  0.04863558    -0.24100
C1212       C  0.62334457  0.24121958  0.04894804     0.18100
C1213       C  0.61326709  0.25267337  0.07534612     0.15400
C1214       C  0.62494393  0.24145190  0.10104874    -0.19100
C1215       C  0.59233285  0.27569616  0.07549193    -0.20900
C1216       C  0.58183846  0.28759375  0.04961901    -0.13500
C1217       C  0.59134842  0.27584244  0.02341987     0.03200
C1218       C  0.61183104  0.25243986  0.02325374    -0.25600
H1219       H  0.67502418  0.19253512  0.07367019     0.08300
H1220       H  0.65355996  0.21061984  0.02850184     0.11900
H1221       H  0.61737289  0.25033191  0.12135324     0.11800
H1222       H  0.58461818  0.28492896  0.09557138     0.11500
H1223       H  0.56634940  0.30588819  0.05001413     0.12100
H1224       H  0.61985608  0.24386493  0.00297801     0.14000
C1225       C  0.65998374  0.22268151  0.27340384    -0.06000
C1226       C  0.66887723  0.21007579  0.29958883    -0.05900
C1227       C  0.65924761  0.22227363  0.32555288    -0.24100
C1228       C  0.63974024  0.24654019  0.32556084     0.18100
C1229       C  0.63040347  0.25899443  0.29920300     0.15400
C1230       C  0.64110047  0.24741879  0.27340196    -0.19100
C1231       C  0.60971643  0.28217124  0.29900148    -0.20900
C1232       C  0.59784237  0.29256495  0.32473285    -0.13500
C1233       C  0.60719814  0.28062750  0.35104047     0.03200
C1234       C  0.62856222  0.25791697  0.35136987    -0.25600
H1235       H  0.68324856  0.19087563  0.29992348     0.08300
H1236       H  0.66642687  0.21229892  0.34556565     0.11900
H1237       H  0.63361535  0.25681598  0.25320344     0.11800
H1238       H  0.60217570  0.29173584  0.27892859     0.11500
H1239       H  0.58129680  0.30991800  0.32411085     0.12100
H1240       H  0.63540405  0.24819043  0.37163390     0.14000
C1241       C  0.84348988  0.09432494  0.28451002    -0.06000
C1242       C  0.81603940  0.08070711  0.28980655    -0.05900
C1243       C  0.79054462  0.09143350  0.27628415    -0.24100
C1244       C  0.79252876  0.11520529  0.25664995     0.18100
C1245       C  0.82032839  0.12829629  0.25055495     0.15400
C1246       C  0.84544766  0.11813865  0.26493196    -0.19100
C1247       C  0.82264107  0.15104177  0.22987738    -0.20900
C1248       C  0.79741141  0.16113681  0.21559251    -0.13500
C1249       C  0.76963685  0.14910163  0.22244256     0.03200
C1250       C  0.76728968  0.12602120  0.24281816    -0.25600
H1251       H  0.81435899  0.06196664  0.30442618     0.08300
H1252       H  0.76939115  0.08093790  0.28086478     0.11900
H1253       H  0.86682418  0.12809011  0.26006357     0.11800
H1254       H  0.84393656  0.16097085  0.22476242     0.11500
H1255       H  0.79942924  0.17879597  0.19979168     0.12100
H1256       H  0.74580082  0.11627980  0.24762563     0.14000
C1257       C  0.51912759  0.09921363  0.27811294    -0.06000
C1258       C  0.54697323  0.08851019  0.28621245    -0.05900
C1259       C  0.57246001  0.09896700  0.27231077    -0.24100
C1260       C  0.57034458  0.12079348  0.25073067     0.18100
C1261       C  0.54243311  0.13247536  0.24317715     0.15400
C1262       C  0.51695977  0.12124379  0.25662753    -0.19100
C1263       C  0.54058298  0.15537849  0.22258012    -0.20900
C1264       C  0.56631885  0.16661098  0.20953956    -0.13500
C1265       C  0.59392650  0.15431975  0.21629533     0.03200
C1266       C  0.59575619  0.13142800  0.23687380    -0.25600
H1267       H  0.04910442  0.07341225  0.30417565     0.08300
H1268       H  0.59382403  0.09011059  0.27850909     0.11900
H1269       H  0.49543037  0.13002826  0.25077899     0.11800
H1270       H  0.51932068  0.16480222  0.21684957     0.11500
H1271       H  0.56469601  0.18460305  0.19407845     0.12100
H1272       H  0.61721015  0.12251692  0.24280933     0.14000
C1273       C  0.95832795  0.15192092  0.35621073    -0.06000
C1274       C  0.45165895  0.17993509  0.34437849    -0.05900
C1275       C  0.46437387  0.20559073  0.35579693    -0.24100
C1276       C  0.48477094  0.20358191  0.37845372     0.18100
C1277       C  0.99204856  0.17536323  0.39022527     0.15400
C1278       C  0.97829285  0.14990606  0.37936113    -0.19100
C1279       C  0.01393048  0.17313802  0.41155084    -0.20900
C1280       C  0.02887589  0.19850219  0.42097621    -0.13500
C1281       C  0.52125779  0.22670977  0.40985429     0.03200
C1282       C  0.49910867  0.22897541  0.38872009    -0.25600
H1283       H  0.43693095  0.18184710  0.32615087     0.08300
H1284       H  0.45899584  0.22691403  0.34630842     0.11900
H1285       H  0.98447439  0.12833500  0.38783793     0.11800
H1286       H  0.01999020  0.15171484  0.42040536     0.11500
H1287       H  0.04617477  0.19630036  0.43690895     0.12100
H1288       H  0.49394701  0.25043719  0.37935249     0.14000
C1289       C  0.98007876  0.47661897  0.34052432    -0.06000
C1290       C  0.97217355  0.44874310  0.32984540    -0.05900
C1291       C  0.98719009  0.42332290  0.33912018    -0.24100
C1292       C  0.00958170  0.42541280  0.35991340     0.18100
C1293       C  0.51714833  0.45355062  0.37125672     0.15400
C1294       C  0.00304355  0.47882111  0.36076511    -0.19100
C1295       C  0.53828906  0.45551937  0.39322623    -0.20900
C1296       C  0.55103990  0.42982962  0.40471771    -0.13500
C1297       C  0.54362209  0.40197564  0.39367123     0.03200
C1298       C  0.52330643  0.40008705  0.37086412    -0.25600
H1299       H  0.95412543  0.94673562  0.31467199     0.08300
H1300       H  0.98076739  0.40196078  0.33062232     0.11900
H1301       H  0.50841377  0.50039463  0.36992811     0.11800
H1302       H  0.54418597  0.47682786  0.40218031     0.11500
H1303       H  0.56631103  0.43164324  0.42250711     0.12100
H1304       H  0.51684207  0.37856411  0.36271924     0.14000
C1305       C  0.85993316  0.46773528  0.14876857    -0.06000
C1306       C  0.85889858  0.44989753  0.17351046    -0.05900
C1307       C  0.87280831  0.95927798  0.19874391    -0.24100
C1308       C  0.88700430  0.98704927  0.19965128     0.18100
C1309       C  0.88808417  0.50503731  0.17466459     0.15400
C1310       C  0.87512321  0.49495108  0.14924897    -0.19100
C1311       C  0.90104497  0.53332279  0.17584594    -0.20900
C1312       C  0.91180662  0.04422016  0.20184820    -0.13500
C1313       C  0.91050560  0.02670326  0.22686895     0.03200
C1314       C  0.89884108  0.99772878  0.22539442    -0.25600
H1315       H  0.84742046  0.42876283  0.17328832     0.08300
H1316       H  0.87173348  0.94523140  0.21768968     0.11900
H1317       H  0.87567996  0.50882449  0.13012824     0.11800
H1318       H  0.90190561  0.54742574  0.15692912     0.11500
H1319       H  0.92054518  0.06660534  0.20251144     0.12100
H1320       H  0.89729417  0.98414808  0.24464790     0.14000
C1321       C  0.89368922  0.03089074  0.39964086    -0.06000
C1322       C  0.89639134  0.04766235  0.42465248    -0.05900
C1323       C  0.88187285  0.03854362  0.44981656    -0.24100
C1324       C  0.86536719  0.01205349  0.45037189     0.18100
C1325       C  0.86296319  0.49491302  0.42518869     0.15400
C1326       C  0.87654780  0.00486139  0.39990001    -0.19100
C1327       C  0.84777771  0.46772372  0.42600734    -0.20900
C1328       C  0.83611780  0.45691005  0.45186191    -0.13500
C1329       C  0.83869054  0.47355993  0.47702549     0.03200
C1330       C  0.85253600  0.00160926  0.47594493    -0.25600
H1331       H  0.90939887  0.06789315  0.42457649     0.08300
H1332       H  0.88409910  0.05180664  0.46898099     0.11900
H1333       H  0.87492035  0.49166542  0.38054617     0.11800
H1334       H  0.84590233  0.45432050  0.40689766     0.11500
H1335       H  0.82575469  0.43521289  0.45236218     0.12100
H1336       H  0.85520893  0.01435760  0.49540364     0.14000
C1337       C  0.79577117  0.34751633  0.10896176    -0.06000
C1338       C  0.80896002  0.31993623  0.10409982    -0.05900
C1339       C  0.79762061  0.29446608  0.11772434    -0.26100
C1340       C  0.77228666  0.29628808  0.13533510     0.18100
C1341       C  0.75903718  0.32412080  0.14017273     0.15400
C1342       C  0.77126708  0.34951889  0.12749500    -0.19100
C1343       C  0.73297478  0.32601785  0.15652877    -0.20900
C1344       C  0.71932010  0.30033761  0.16705938    -0.13500
C1345       C  0.73195534  0.27248100  0.16204911     0.03200
C1346       C  0.75901975  0.27068339  0.14692942    -0.25600
H1347       H  0.82784164  0.31814780  0.08980877     0.08300
H1348       H  0.80798886  0.27325647  0.11371950     0.11900
H1349       H  0.76070594  0.37080508  0.13082998     0.11800
H1350       H  0.72254652  0.34726280  0.16024098     0.11500
H1351       H  0.69850121  0.30219410  0.17854125     0.12100
H1352       H  0.76876425  0.24923188  0.14258930     0.14000
C1353       C  0.77107890  0.02188085  0.09192865    -0.06000
C1354       C  0.77793664  0.04961994  0.07980716    -0.05900
C1355       C  0.76273941  0.07496845  0.08868102    -0.24100
C1356       C  0.74120096  0.07300968  0.11048936     0.18100
C1357       C  0.73440915  0.04519131  0.12301972     0.15400
C1358       C  0.74895743  0.01976156  0.11324694    -0.19100
C1359       C  0.71402161  0.04343569  0.14583533    -0.20900
C1360       C  0.70127290  0.06920895  0.15686105    -0.13500
C1361       C  0.70796058  0.09696835  0.14461677     0.03200
C1362       C  0.72736639  0.09857393  0.12088538    -0.25600
H1363       H  0.79495874  0.05163329  0.06344671     0.08300
H1364       H  0.76835738  0.09619648  0.07902811     0.11900
H1365       H  0.74397127  0.99844418  0.12309926     0.11800
H1366       H  0.70876279  0.02226842  0.15580320     0.11500
H1367       H  0.68667716  0.06753593  0.17531726     0.12100
H1368       H  0.73323842  0.11996700  0.11168136     0.14000
C1369       C  0.90709010  0.40579696  0.03101725    -0.06000
C1370       C  0.93416796  0.42080574  0.03368711    -0.05900
C1371       C  0.95942689  0.41044673  0.51933961    -0.24100
C1372       C  0.95770405  0.38516397  0.50198760     0.18100
C1373       C  0.93024887  0.37057166  0.99845226     0.15400
C1374       C  0.90529524  0.38071508  0.01328661    -0.19100
C1375       C  0.92819684  0.34624007  0.97987513    -0.20900
C1376       C  0.95346480  0.33570359  0.46574008    -0.13500
C1377       C  0.98092340  0.34939866  0.47015818     0.03200
C1378       C  0.98288972  0.37428281  0.48804281    -0.25600
H1379       H  0.93578008  0.44048064  0.04677094     0.08300
H1380       H  0.98023462  0.42216855  0.52184376     0.11900
H1381       H  0.88420979  0.36956728  0.01036131     0.11800
H1382       H  0.90718942  0.33510479  0.97660776     0.11500
H1383       H  0.95171488  0.31658458  0.45192218     0.12100
H1384       H  0.00410639  0.38518287  0.49101527     0.14000
C1385       C  0.65715378  0.34509177  0.46895221    -0.06000
C1386       C  0.68386366  0.32940594  0.46703336    -0.05900
C1387       C  0.70901406  0.33928634  0.48167401    -0.24100
C1388       C  0.70756397  0.36450262  0.49912358     0.18100
C1389       C  0.68055999  0.37991655  0.00183649     0.15400
C1390       C  0.65578934  0.37058077  0.48625663    -0.19100
C1391       C  0.67879989  0.40426607  0.02046016    -0.20900
C1392       C  0.70382077  0.41365306  0.03569434    -0.13500
C1393       C  0.73095200  0.39917276  0.03197628     0.03200
C1394       C  0.73263758  0.37452608  0.01372510    -0.25600
H1395       H  0.68522785  0.30947795  0.45429458     0.08300
H1396       H  0.72949105  0.32696138  0.47969208     0.11900
H1397       H  0.63502805  0.38239037  0.48857609     0.11800
H1398       H  0.65812534  0.41610998  0.02312191     0.11500
H1399       H  0.70227284  0.43275743  0.04954443     0.12100
H1400       H  0.75348933  0.36286286  0.51154304     0.14000
O1401       O  0.87533146  0.44477554  0.54663013    -0.82500
C1402       C  0.75849355  0.41034112  0.54497220     0.96800
O1403       O  0.78082264  0.41231036  0.52888288    -0.71700
O1404       O  0.83115999  0.43240850  0.50852996    -0.75300
Al1405     Al  0.81984828  0.40710267  0.54065406     1.49000
C1406       C  0.83119903  0.46035976  0.50515691     0.92100
O1407       O  0.81510702  0.49622870  0.57828471    -0.81500
O1408       O  0.81745750  0.45232573  0.62270349    -0.75000
Al1409     Al  0.84239856  0.46708578  0.56293120     1.90100
O1410       O  0.77419889  0.47068401  0.58462092    -0.74100
O1411       O  0.80591185  0.39816709  0.60799784    -0.74000
O1412       O  0.76037550  0.41577594  0.57163939    -0.79600
O1413       O  0.80846013  0.37529280  0.56687605    -0.77800
O1414       O  0.81783943  0.43624282  0.56605379    -1.13900
O1415       O  0.85933298  0.39888824  0.54982708    -0.73100
C1416       C  0.87972418  0.41711663  0.54415103     0.97600
C1417       C  0.78761864  0.49510977  0.58388421     0.94000
Al1418     Al  0.79161529  0.43441028  0.59441799     1.55600
O1419       O  0.82806876  0.47718018  0.52636939    -0.77800
C1420       C  0.80523886  0.37467391  0.59386199     0.98100
C1421       C  0.84482799  0.45894262  0.62233046     0.93000
O1422       O  0.85915914  0.46022866  0.59913069    -0.83100
O1423       O  0.94369703  0.12371740  0.81542003    -0.82500
C1424       C  0.96343954  0.00368218  0.83265445     0.96800
O1425       O  0.97708704  0.02797340  0.83266906    -0.71700
O1426       O  0.99083650  0.08265894  0.81867687    -0.75300
Al1427     Al  0.96055108  0.06434539  0.84290560     1.49000
C1428       C  0.99181506  0.08831132  0.79192700     0.92100
O1429       O  0.91759486  0.06744439  0.75859427    -0.81500
O1430       O  0.87515270  0.05507235  0.79881516    -0.75000
Al1431     Al  0.93060718  0.09225377  0.79012264     1.90100
O1432       O  0.92104408  0.02241113  0.77641960    -0.74100
O1433       O  0.89317682  0.03904873  0.85027866    -0.74000
O1434       O  0.93582291  0.00281557  0.82801280    -0.79600
O1435       O  0.93557767  0.04652241  0.87237939    -0.77800
O1436       O  0.93330300  0.06292855  0.81561127    -1.13900
O1437       O  0.94757451  0.10097550  0.85680921    -0.73100
C1438       C  0.94830795  0.12446817  0.84219751     0.97600
C1439       C  0.91751030  0.03953637  0.75521384     0.94000
Al1440     Al  0.90836716  0.03232484  0.81362766     1.55600
O1441       O  0.96897990  0.08655113  0.77666091    -0.77800
C1442       C  0.90819005  0.04003438  0.87293406     0.98100
C1443       C  0.87095051  0.08279966  0.79675380     0.93000
O1444       O  0.89174368  0.10078202  0.80129925    -0.83100
O1445       O  0.68784101  0.24588824  0.67332494    -0.82500
C1446       C  0.69846053  0.12474401  0.65853594     0.96800
O1447       O  0.69841538  0.14833931  0.64399215    -0.71700
O1448       O  0.68804824  0.20343161  0.62889266    -0.75300
Al1449     Al  0.71204399  0.18470285  0.65827154     1.49000
C1450       C  0.66077381  0.21010902  0.62784150     0.92100
O1451       O  0.62598168  0.19400518  0.70175028    -0.81500
O1452       O  0.66843658  0.18150809  0.74264328    -0.75000
Al1453     Al  0.65969715  0.21663222  0.68720599     1.90100
O1454       O  0.64236928  0.14829525  0.70002245    -0.74100
O1455       O  0.71968641  0.16215779  0.72423851    -0.74000
O1456       O  0.69389204  0.12542210  0.68536259    -0.79600
O1457       O  0.74169830  0.16568513  0.68214498    -0.77800
O1458       O  0.68440903  0.18603688  0.68543821    -1.13900
O1459       O  0.72910399  0.22080251  0.66922029    -0.73100
C1460       C  0.71561992  0.24512525  0.66932654     0.97600
C1461       C  0.62163358  0.16631024  0.70424107     0.94000
Al1462     Al  0.68126912  0.15671630  0.71094246     1.55600
O1463       O  0.64508069  0.21020134  0.65022248    -0.77800
C1464       C  0.74250953  0.16013905  0.70886521     0.98100
C1465       C  0.66809308  0.20943202  0.74569897     0.93000
O1466       O  0.67176579  0.22644417  0.72442639    -0.83100
O1467       O  0.50985655  0.33263043  0.93069033    -0.82500
C1468       C  0.62956896  0.33351342  0.95595286     0.96800
O1469       O  0.60875309  0.35136584  0.95113281    -0.71700
O1470       O  0.55716284  0.37343795  0.93473443    -0.75300
Al1471     Al  0.56940593  0.34204395  0.96078746     1.49000
C1472       C  0.55330252  0.37426461  0.90782457     0.92100
O1473       O  0.56570856  0.29624566  0.87879178    -0.81500
O1474       O  0.56515615  0.25290383  0.92319641    -0.75000
Al1475     Al  0.54062482  0.31423210  0.90756338     1.90100
O1476       O  0.60828149  0.28963042  0.90072948    -0.74100
O1477       O  0.57956913  0.27228592  0.97462182    -0.74000
O1478       O  0.62557727  0.30581130  0.95291500    -0.79600
O1479       O  0.58161697  0.31703294  0.99271607    -0.77800
O1480       O  0.56752419  0.31297863  0.93526167    -1.13900
O1481       O  0.53054156  0.33586833  0.97319874    -0.73100
C1482       C  0.50818360  0.33803200  0.95732316     0.97600
C1483       C  0.59305830  0.28981465  0.87811542     0.94000
Al1484     Al  0.59260160  0.28267007  0.93762127     1.55600
O1485       O  0.55416983  0.35086423  0.89343423    -0.77800
C1486       C  0.58264004  0.28910298  0.99582343     0.98100
C1487       C  0.53751723  0.25356165  0.91832983     0.93000
O1488       O  0.52380478  0.27775857  0.91822118    -0.83100
C1489       C  0.64731372  0.21988580  0.60067389    -0.06000
C1490       C  0.65730429  0.20878953  0.57437021    -0.05900
C1491       C  0.64495662  0.21899598  0.54868883    -0.24100
C1492       C  0.62309943  0.24107191  0.54898203     0.18100
C1493       C  0.61333605  0.25284166  0.57535779     0.15400
C1494       C  0.62510561  0.24173270  0.60105996    -0.19100
C1495       C  0.59262537  0.27606103  0.57547755    -0.20900
C1496       C  0.58206706  0.28786345  0.54959491    -0.13500
C1497       C  0.59127935  0.27583031  0.52341755     0.03200
C1498       C  0.61150728  0.25220375  0.52328402    -0.25600
H1499       H  0.67451022  0.19211054  0.57373444     0.08300
H1500       H  0.65286881  0.21001409  0.52857079     0.11900
H1501       H  0.61776958  0.25084711  0.62134606     0.11800
H1502       H  0.58515537  0.28553151  0.59553759     0.11500
H1503       H  0.56678492  0.30633225  0.54996523     0.12100
H1504       H  0.61931324  0.24340197  0.50302223     0.14000
C1505       C  0.65994002  0.22265237  0.77339432    -0.06000
C1506       C  0.66917233  0.21031590  0.79958352    -0.05900
C1507       C  0.65953598  0.22252965  0.82553958    -0.24100
C1508       C  0.63969397  0.24652501  0.82553493     0.18100
C1509       C  0.62998866  0.25866453  0.79916745     0.15400
C1510       C  0.64067774  0.24708604  0.77336934    -0.19100
C1511       C  0.60898440  0.28154877  0.79896045    -0.20900
C1512       C  0.59719292  0.29198921  0.82470420    -0.13500
C1513       C  0.60692320  0.28038818  0.85102313     0.03200
C1514       C  0.62857070  0.25794594  0.85134814    -0.25600
H1515       H  0.68383325  0.19133665  0.79992510     0.08300
H1516       H  0.66699682  0.21278846  0.84556043     0.11900
H1517       H  0.63293427  0.25624729  0.75316267     0.11800
H1518       H  0.60115566  0.29085811  0.77888162     0.11500
H1519       H  0.58041734  0.30911959  0.82408124     0.12100
H1520       H  0.63570192  0.24846235  0.87162290     0.14000
C1521       C  0.84334959  0.09447247  0.78467294    -0.06000
C1522       C  0.81586652  0.08099988  0.79015339    -0.05900
C1523       C  0.79037198  0.09171634  0.77662695    -0.24100
C1524       C  0.79238931  0.11532085  0.75680773     0.18100
C1525       C  0.82021976  0.12825978  0.75053721     0.15400
C1526       C  0.84534177  0.11812382  0.76491878    -0.19100
C1527       C  0.82255817  0.15082734  0.72968206    -0.20900
C1528       C  0.79732563  0.16090000  0.71539084    -0.13500
C1529       C  0.76952635  0.14902172  0.72240584     0.03200
C1530       C  0.76715292  0.12611433  0.74296124    -0.25600
H1531       H  0.81416342  0.06238080  0.80491552     0.08300
H1532       H  0.76919181  0.08133783  0.78134658     0.11900
H1533       H  0.86674418  0.12795181  0.75991753     0.11800
H1534       H  0.84387652  0.16063488  0.72443324     0.11500
H1535       H  0.79936454  0.17842365  0.69945184     0.12100
H1536       H  0.74564385  0.11648589  0.74790027     0.14000
C1537       C  0.51920081  0.09951652  0.77832194    -0.06000
C1538       C  0.54710370  0.08929523  0.78681696    -0.05900
C1539       C  0.57259244  0.09991803  0.77304171    -0.24100
C1540       C  0.57041213  0.12142461  0.75117283     0.18100
C1541       C  0.54243378  0.13266270  0.74323007     0.15400
C1542       C  0.51697160  0.12127576  0.75657971    -0.19100
C1543       C  0.54050292  0.15525788  0.72231950    -0.20900
C1544       C  0.56622013  0.16656246  0.70929665    -0.13500
C1545       C  0.59389283  0.15464458  0.71640931     0.03200
C1546       C  0.59581451  0.13213396  0.73736178    -0.25600
H1547       H  0.04884130  0.07212854  0.80321556     0.08300
H1548       H  0.59400617  0.09141765  0.77954260     0.11900
H1549       H  0.49539518  0.12971981  0.75043040     0.11800
H1550       H  0.51918404  0.16435232  0.71629137     0.11500
H1551       H  0.56453280  0.18427249  0.69354014     0.12100
H1552       H  0.61732038  0.12353878  0.74355808     0.14000
C1553       C  0.95828313  0.15204024  0.85615810    -0.06000
C1554       C  0.45135184  0.17985413  0.84470066    -0.05900
C1555       C  0.46401454  0.20550360  0.85619359    -0.24100
C1556       C  0.48459214  0.20345863  0.87869728     0.18100
C1557       C  0.99182828  0.17554886  0.89029341     0.15400
C1558       C  0.97803851  0.15008372  0.87948257    -0.19100
C1559       C  0.01352228  0.17336077  0.91180262    -0.20900
C1560       C  0.02852530  0.19871451  0.92117167    -0.13500
C1561       C  0.52119642  0.22657405  0.90999108     0.03200
C1562       C  0.49886680  0.22886139  0.88903286    -0.25600
H1563       H  0.43646958  0.18180110  0.82659436     0.08300
H1564       H  0.45844719  0.22685818  0.84688092     0.11900
H1565       H  0.98404761  0.12853995  0.88814318     0.11800
H1566       H  0.01939436  0.15196828  0.92084866     0.11500
H1567       H  0.04567473  0.19653960  0.93725851     0.12100
H1568       H  0.49351841  0.25035415  0.87983810     0.14000
C1569       C  0.97987129  0.47667435  0.84066337    -0.06000
C1570       C  0.97212611  0.44880965  0.82985717    -0.05900
C1571       C  0.98720651  0.42341910  0.83911555    -0.24100
C1572       C  0.00949545  0.42552953  0.86001268     0.18100
C1573       C  0.51751393  0.45345807  0.87088765     0.15400
C1574       C  0.00270056  0.47889584  0.86104082    -0.19100
C1575       C  0.53876378  0.45540426  0.89276232    -0.20900
C1576       C  0.55139096  0.42968874  0.90433603    -0.13500
C1577       C  0.54374503  0.40182521  0.89345508     0.03200
C1578       C  0.52335776  0.39995402  0.87070810    -0.25600
H1579       H  0.95413777  0.94676003  0.81464576     0.08300
H1580       H  0.98092807  0.40206365  0.83050564     0.11900
H1581       H  0.50897061  0.50033662  0.86945660     0.11800
H1582       H  0.54482441  0.47672050  0.90159889     0.11500
H1583       H  0.56673825  0.43149282  0.92206467     0.12100
H1584       H  0.51673266  0.37843059  0.86268208     0.14000
C1585       C  0.85994290  0.46772993  0.64879256    -0.06000
C1586       C  0.85880375  0.44992596  0.67355400    -0.05900
C1587       C  0.87267092  0.95929911  0.69876547    -0.24100
C1588       C  0.88682412  0.98708994  0.69971143     0.18100
C1589       C  0.88802701  0.50504242  0.67473580     0.15400
C1590       C  0.87515097  0.49493361  0.64928898    -0.19100
C1591       C  0.90100078  0.53332069  0.67592573    -0.20900
C1592       C  0.91155227  0.04428724  0.70197115    -0.13500
C1593       C  0.91025238  0.02674927  0.72697914     0.03200
C1594       C  0.89861695  0.99776557  0.72547663    -0.25600
H1595       H  0.84729835  0.42880615  0.67332339     0.08300
H1596       H  0.87158898  0.94523702  0.71770053     0.11900
H1597       H  0.87577721  0.50878640  0.63015595     0.11800
H1598       H  0.90193411  0.54740082  0.65699592     0.11500
H1599       H  0.92026704  0.06668071  0.70265482     0.12100
H1600       H  0.89706987  0.98416917  0.74472003     0.14000
C1601       C  0.89360419  0.03098018  0.89974129    -0.06000
C1602       C  0.89601260  0.04787190  0.92470266    -0.05900
C1603       C  0.88147520  0.03868444  0.94983376    -0.24100
C1604       C  0.86524643  0.01202293  0.95040088     0.18100
C1605       C  0.86322077  0.49479509  0.92526711     0.15400
C1606       C  0.87675321  0.00476697  0.90001145    -0.19100
C1607       C  0.84825651  0.46748626  0.92609046    -0.20900
C1608       C  0.83650216  0.45668479  0.95190663    -0.13500
C1609       C  0.83877230  0.47345040  0.97702670     0.03200
C1610       C  0.85238748  0.00153966  0.97594299    -0.25600
H1611       H  0.90879399  0.06824599  0.92460778     0.08300
H1612       H  0.88346297  0.05203972  0.96896300     0.11900
H1613       H  0.87544321  0.49149984  0.88069568     0.11800
H1614       H  0.84661629  0.45399511  0.90701802     0.11500
H1615       H  0.82630946  0.43490761  0.95241640     0.12100
H1616       H  0.85482681  0.01438713  0.99536927     0.14000
C1617       C  0.79589962  0.34752400  0.60896878    -0.06000
C1618       C  0.80902379  0.31993420  0.60399013    -0.05900
C1619       C  0.79770847  0.29444637  0.61760745    -0.26100
C1620       C  0.77245436  0.29626088  0.63532791     0.18100
C1621       C  0.75928400  0.32410513  0.64029917     0.15400
C1622       C  0.77149735  0.34951651  0.62763021    -0.19100
C1623       C  0.73329799  0.32600574  0.65676742    -0.20900
C1624       C  0.71962384  0.30032193  0.66726277    -0.13500
C1625       C  0.73216484  0.27245239  0.66210631     0.03200
C1626       C  0.75917293  0.27064405  0.64689078    -0.25600
H1627       H  0.82782987  0.31814947  0.58960513     0.08300
H1628       H  0.80802020  0.27323089  0.61350275     0.11900
H1629       H  0.76098247  0.37080775  0.63106305     0.11800
H1630       H  0.72293308  0.34726005  0.66058660     0.11500
H1631       H  0.69885408  0.30218884  0.67882675     0.12100
H1632       H  0.76884564  0.24918458  0.64244389     0.14000
C1633       C  0.77097965  0.02194180  0.59195439    -0.06000
C1634       C  0.77788630  0.04969015  0.57988067    -0.05900
C1635       C  0.76267699  0.07503464  0.58873868    -0.24100
C1636       C  0.74107314  0.07306115  0.61048346     0.18100
C1637       C  0.73422980  0.04523414  0.62296874     0.15400
C1638       C  0.74879509  0.01980826  0.61321107    -0.19100
C1639       C  0.71377465  0.04346708  0.64572773    -0.20900
C1640       C  0.70101331  0.06923817  0.65674612    -0.13500
C1641       C  0.70775546  0.09700416  0.64454456     0.03200
C1642       C  0.72722454  0.09862081  0.62086463    -0.25600
H1643       H  0.79495704  0.05171446  0.56356900     0.08300
H1644       H  0.76833491  0.09627040  0.57912426     0.11900
H1645       H  0.74376970  0.99848319  0.62302843     0.11800
H1646       H  0.70847496  0.02229306  0.65566146     0.11500
H1647       H  0.68636889  0.06755879  0.67516580     0.12100
H1648       H  0.73313933  0.12001924  0.61169824     0.14000
C1649       C  0.90712701  0.40582673  0.53094820    -0.06000
C1650       C  0.93415632  0.42096846  0.53340976    -0.05900
C1651       C  0.95944969  0.41027599  0.01964415    -0.24100
C1652       C  0.95768728  0.38513002  0.00211145     0.18100
C1653       C  0.93031418  0.37045594  0.49854063     0.15400
C1654       C  0.90537434  0.38060128  0.51339990    -0.19100
C1655       C  0.92829398  0.34597378  0.48014482    -0.20900
C1656       C  0.95338163  0.33596586  0.96549757    -0.13500
C1657       C  0.98088092  0.34950096  0.97012496     0.03200
C1658       C  0.98288073  0.37424089  0.98819176    -0.25600
H1659       H  0.93573995  0.44075010  0.54634611     0.08300
H1660       H  0.98029765  0.42188446  0.02231185     0.11900
H1661       H  0.88432789  0.36933629  0.51062948     0.11800
H1662       H  0.90732312  0.33471734  0.47704176     0.11500
H1663       H  0.95160459  0.31696468  0.95153232     0.12100
H1664       H  0.00412931  0.38502864  0.99132132     0.14000
C1665       C  0.65713082  0.34506318  0.96886952    -0.06000
C1666       C  0.68393111  0.32957612  0.96667281    -0.05900
C1667       C  0.70910705  0.33951037  0.98124332    -0.24100
C1668       C  0.70759238  0.36456568  0.99890682     0.18100
C1669       C  0.68062464  0.38007441  0.50176107     0.15400
C1670       C  0.65569553  0.37038513  0.98639574    -0.19100
C1671       C  0.67892440  0.40460809  0.52016198    -0.20900
C1672       C  0.70391904  0.41396019  0.53545368    -0.13500
C1673       C  0.73096289  0.39924531  0.53202211     0.03200
C1674       C  0.73258578  0.37441635  0.51400451    -0.25600
H1675       H  0.68535101  0.30977564  0.95375553     0.08300
H1676       H  0.72965763  0.32735121  0.97903765     0.11900
H1677       H  0.63486601  0.38202658  0.98892733     0.11800
H1678       H  0.65832133  0.41662903  0.52259564     0.11500
H1679       H  0.70243211  0.43321704  0.54911158     0.12100
H1680       H  0.75360092  0.36313398  0.01105087     0.14000
O1681       O  0.87532118  0.94473438  0.04669505    -0.82500
C1682       C  0.75851236  0.91021818  0.04498799     0.96800
O1683       O  0.78085538  0.91217755  0.02891337    -0.71700
O1684       O  0.83120311  0.93229482  0.00858791    -0.75300
Al1685     Al  0.81987888  0.90700602  0.04071650     1.49000
C1686       C  0.83120247  0.96024311  0.00519839     0.92100
O1687       O  0.81505554  0.99615201  0.07828693    -0.81500
O1688       O  0.81744448  0.95226111  0.12275154    -0.75000
Al1689     Al  0.84236451  0.96702453  0.06296332     1.90100
O1690       O  0.77416792  0.97058613  0.08465282    -0.74100
O1691       O  0.80590481  0.89808462  0.10805073    -0.74000
O1692       O  0.76037702  0.91567401  0.07165546    -0.79600
O1693       O  0.80848114  0.87520546  0.06693510    -0.77800
O1694       O  0.81783362  0.93616052  0.06610147    -1.13900
O1695       O  0.85936317  0.89883136  0.04992797    -0.73100
C1696       C  0.87974019  0.91707743  0.04425255     0.97600
C1697       C  0.78757115  0.99501921  0.08389006     0.94000
Al1698     Al  0.79160311  0.93432335  0.09445742     1.55600
O1699       O  0.82802170  0.97707020  0.02639773    -0.77800
C1700       C  0.80522690  0.87459106  0.09391579     0.98100
C1701       C  0.84480772  0.95892160  0.12236811     0.93000
O1702       O  0.85912794  0.96021868  0.09916373    -0.83100
O1703       O  0.94379909  0.62362622  0.31535811    -0.82500
C1704       C  0.96364495  0.50357736  0.33249746     0.96800
O1705       O  0.97726709  0.52788264  0.33255082    -0.71700
O1706       O  0.99096812  0.58260330  0.31860540    -0.75300
Al1707     Al  0.96068744  0.56423627  0.34280401     1.49000
C1708       C  0.99194734  0.58829381  0.29186275     0.92100
O1709       O  0.91777540  0.56736903  0.25846836    -0.81500
O1710       O  0.87531850  0.55493081  0.29864812    -0.75000
Al1711     Al  0.93074597  0.59216533  0.29002612     1.90100
O1712       O  0.92127739  0.52233117  0.27626940    -0.74100
O1713       O  0.89332603  0.53886362  0.35012121    -0.74000
O1714       O  0.93602986  0.50269351  0.32784564    -0.79600
O1715       O  0.93570411  0.54637507  0.37225168    -0.77800
O1716       O  0.93345407  0.56282124  0.31549579    -1.13900
O1717       O  0.94767658  0.60084361  0.35672771    -0.73100
C1718       C  0.94841048  0.62435016  0.34213724     0.97600
C1719       C  0.91772948  0.53946306  0.25507271     0.94000
Al1720     Al  0.90855227  0.53219455  0.31347022     1.55600
O1721       O  0.96912524  0.58650060  0.27658407    -0.77800
C1722       C  0.90831801  0.53987224  0.37279042     0.98100
C1723       C  0.87109109  0.58265806  0.29660210     0.93000
O1724       O  0.89186637  0.60065252  0.30118076    -0.83100
O1725       O  0.68768720  0.74581138  0.17335025    -0.82500
C1726       C  0.69854120  0.62465736  0.15871325     0.96800
O1727       O  0.69842007  0.64823259  0.14413822    -0.71700
O1728       O  0.68794146  0.70329978  0.12898072    -0.75300
Al1729     Al  0.71198863  0.68464180  0.15836845     1.49000
C1730       C  0.66065687  0.70994145  0.12793618     0.92100
O1731       O  0.62593501  0.69384345  0.20187330    -0.81500
O1732       O  0.66843823  0.68149569  0.24276745    -0.75000
Al1733     Al  0.65960235  0.71651856  0.18728918     1.90100
O1734       O  0.64240362  0.64816098  0.20020949    -0.74100
O1735       O  0.71972325  0.66220239  0.22436207    -0.74000
O1736       O  0.69397432  0.62536408  0.18554140    -0.79600
O1737       O  0.74169397  0.66570138  0.18224677    -0.77800
O1738       O  0.68436765  0.68596312  0.18554690    -1.13900
O1739       O  0.72898597  0.72078005  0.16927172    -0.73100
C1740       C  0.71546561  0.74508256  0.16933809     0.97600
C1741       C  0.62162622  0.66614203  0.20438170     0.94000
Al1742     Al  0.68129920  0.65667416  0.21109258     1.55600
O1743       O  0.64497187  0.71001381  0.15032229    -0.77800
C1744       C  0.74253510  0.66018274  0.20897159     0.98100
C1745       C  0.66806205  0.70942559  0.24579164     0.93000
O1746       O  0.67167898  0.72640786  0.22448822    -0.83100
O1747       O  0.50983159  0.83265057  0.43066147    -0.82500
C1748       C  0.62947025  0.83349450  0.45612875     0.96800
O1749       O  0.60866106  0.85135920  0.45129982    -0.71700
O1750       O  0.55704286  0.87344076  0.43490504    -0.75300
Al1751     Al  0.56930200  0.84200468  0.46089393     1.49000
C1752       C  0.55323178  0.87433836  0.40799242     0.92100
O1753       O  0.56583734  0.79640365  0.37879925    -0.81500
O1754       O  0.56509839  0.75292210  0.42322274    -0.75000
Al1755     Al  0.54066431  0.81431781  0.40754755     1.90100
O1756       O  0.60830909  0.78961834  0.40087598    -0.74100
O1757       O  0.57939522  0.77225287  0.47468857    -0.74000
O1758       O  0.62547324  0.80579117  0.45308177    -0.79600
O1759       O  0.58149515  0.81697999  0.49279895    -0.77800
O1760       O  0.56748109  0.81298677  0.43531683    -1.13900
O1761       O  0.53042992  0.83574297  0.47322631    -0.73100
C1762       C  0.50810471  0.83796191  0.45731217     0.97600
C1763       C  0.59317604  0.78991749  0.37820837     0.94000
Al1764     Al  0.59252725  0.78265763  0.43771834     1.55600
O1765       O  0.55424710  0.85098771  0.39353834    -0.77800
C1766       C  0.58247656  0.78905164  0.49590135     0.98100
C1767       C  0.53748203  0.75362762  0.41825845     0.93000
O1768       O  0.52380630  0.77784076  0.41806790    -0.83100
C1769       C  0.64717894  0.71971551  0.10077371    -0.06000
C1770       C  0.65719148  0.70865447  0.07446413    -0.05900
C1771       C  0.64485300  0.71888040  0.04878631    -0.24100
C1772       C  0.62298324  0.74094341  0.04908832     0.18100
C1773       C  0.61319121  0.75267671  0.07546899     0.15400
C1774       C  0.62495075  0.74154488  0.10116872    -0.19100
C1775       C  0.59246637  0.77588572  0.07559479    -0.20900
C1776       C  0.58192293  0.78771208  0.04971370    -0.13500
C1777       C  0.59116472  0.77571167  0.02353148     0.03200
C1778       C  0.61140740  0.75209756  0.02339322    -0.25600
H1779       H  0.67441321  0.69199221  0.07382023     0.08300
H1780       H  0.65278574  0.70992710  0.02866379     0.11900
H1781       H  0.61759732  0.75063409  0.12145952     0.11800
H1782       H  0.58497296  0.78532882  0.09565888     0.11500
H1783       H  0.56662626  0.80616870  0.05008941     0.12100
H1784       H  0.61923475  0.74331905  0.00312946     0.14000
C1785       C  0.65999136  0.72267829  0.27350764    -0.06000
C1786       C  0.66883095  0.71002289  0.29968811    -0.05900
C1787       C  0.65917527  0.72219064  0.32565550    -0.24100
C1788       C  0.63969275  0.74647615  0.32566913     0.18100
C1789       C  0.63041014  0.75898147  0.29931479     0.15400
C1790       C  0.64113665  0.74743641  0.27351230    -0.19100
C1791       C  0.60974348  0.78217611  0.29911625    -0.20900
C1792       C  0.59783951  0.79254034  0.32484560    -0.13500
C1793       C  0.60714575  0.78055439  0.35114933     0.03200
C1794       C  0.62848573  0.75782271  0.35147829    -0.25600
H1795       H  0.68317512  0.69080233  0.30001633     0.08300
H1796       H  0.66631130  0.71217594  0.34566476     0.11900
H1797       H  0.63368915  0.75686897  0.25331564     0.11800
H1798       H  0.60224254  0.79177896  0.27904587     0.11500
H1799       H  0.58131248  0.80991109  0.32422549     0.12100
H1800       H  0.63528745  0.74805986  0.37173930     0.14000
C1801       C  0.84347437  0.59432811  0.28453223    -0.06000
C1802       C  0.81601324  0.58077048  0.28992122    -0.05900
C1803       C  0.79050467  0.59150778  0.27643161    -0.24100
C1804       C  0.79248287  0.61522698  0.25673727     0.18100
C1805       C  0.82029071  0.62825606  0.25055067     0.15400
C1806       C  0.84542753  0.61809087  0.26489610    -0.19100
C1807       C  0.82259225  0.65094493  0.22981376    -0.20900
C1808       C  0.79734655  0.66104101  0.21555550    -0.13500
C1809       C  0.76956740  0.64906620  0.22249026     0.03200
C1810       C  0.76722969  0.62604632  0.24293167    -0.25600
H1811       H  0.81433557  0.56207014  0.30458917     0.08300
H1812       H  0.76934388  0.58105956  0.28108397     0.11900
H1813       H  0.86681079  0.62799337  0.25996031     0.11800
H1814       H  0.84389238  0.66082621  0.22462875     0.11500
H1815       H  0.79935849  0.67865226  0.19970403     0.12100
H1816       H  0.74573712  0.61634811  0.24780676     0.14000
C1817       C  0.51900799  0.59934548  0.27823839    -0.06000
C1818       C  0.54685419  0.58868886  0.28639197    -0.05900
C1819       C  0.57234929  0.59916464  0.27252182    -0.24100
C1820       C  0.57024150  0.62096296  0.25091611     0.18100
C1821       C  0.54232945  0.63261203  0.24331522     0.15400
C1822       C  0.51684625  0.62136236  0.25673841    -0.19100
C1823       C  0.54049024  0.65549038  0.22269013    -0.20900
C1824       C  0.56623525  0.66671313  0.20965484    -0.13500
C1825       C  0.59384099  0.65443725  0.21644773     0.03200
C1826       C  0.59566147  0.63158935  0.23706969    -0.25600
H1827       H  0.04902680  0.57237950  0.30326396     0.08300
H1828       H  0.59371360  0.59033739  0.27875829     0.11900
H1829       H  0.49531471  0.63011455  0.25085189     0.11800
H1830       H  0.51922872  0.66489362  0.21692464     0.11500
H1831       H  0.56462022  0.68467663  0.19416176     0.12100
H1832       H  0.61711417  0.62269592  0.24303486     0.14000
C1833       C  0.95839200  0.65190151  0.35613165    -0.06000
C1834       C  0.45168060  0.67997915  0.34424300    -0.05900
C1835       C  0.46446279  0.70561780  0.35562280    -0.24100
C1836       C  0.48472286  0.70359993  0.37839256     0.18100
C1837       C  0.99202372  0.67538292  0.39020716     0.15400
C1838       C  0.97831278  0.64991081  0.37931993    -0.19100
C1839       C  0.01385461  0.67317957  0.41158323    -0.20900
C1840       C  0.02875476  0.69855698  0.42104014    -0.13500
C1841       C  0.52112935  0.72667986  0.40990503     0.03200
C1842       C  0.49912377  0.72896420  0.38863522    -0.25600
H1843       H  0.43707125  0.68188998  0.32592565     0.08300
H1844       H  0.45924784  0.72692881  0.34601933     0.11900
H1845       H  0.98448826  0.62834758  0.38782003     0.11800
H1846       H  0.01991205  0.65176256  0.42045372     0.11500
H1847       H  0.04602037  0.69637030  0.43700857     0.12100
H1848       H  0.49411657  0.75041482  0.37916100     0.14000
C1849       C  0.98016051  0.97669398  0.34044837    -0.06000
C1850       C  0.97202044  0.94880103  0.32997159    -0.05900
C1851       C  0.98697489  0.92335310  0.33925410    -0.24100
C1852       C  0.00954616  0.92543694  0.35986042     0.18100
C1853       C  0.51707732  0.95346573  0.37126786     0.15400
C1854       C  0.00333614  0.97888939  0.36046716    -0.19100
C1855       C  0.53814348  0.95543450  0.39330302    -0.20900
C1856       C  0.55089165  0.92974913  0.40480227    -0.13500
C1857       C  0.54354529  0.90189884  0.39370486     0.03200
C1858       C  0.52330319  0.90001099  0.37083369    -0.25600
H1859       H  0.95443852  0.44667501  0.31437302     0.08300
H1860       H  0.98035081  0.90197747  0.33093067     0.11900
H1861       H  0.50830030  0.00030049  0.36996498     0.11800
H1862       H  0.54398402  0.97673896  0.40229921     0.11500
H1863       H  0.56610309  0.93156295  0.42263955     0.12100
H1864       H  0.51689245  0.87849027  0.36264566     0.14000
C1865       C  0.85994032  0.96773558  0.14881809    -0.06000
C1866       C  0.85888329  0.94992021  0.17357464    -0.05900
C1867       C  0.87282920  0.45924293  0.19868040    -0.24100
C1868       C  0.88700657  0.48702268  0.19960192     0.18100
C1869       C  0.88810113  0.00504477  0.17470216     0.15400
C1870       C  0.87514445  0.99494555  0.14928736    -0.19100
C1871       C  0.90108017  0.03332360  0.17586990    -0.20900
C1872       C  0.91176732  0.54420875  0.20182861    -0.13500
C1873       C  0.91047898  0.52667497  0.22683911     0.03200
C1874       C  0.89883945  0.49769263  0.22534921    -0.25600
H1875       H  0.84739365  0.92879147  0.17336411     0.08300
H1876       H  0.87177053  0.44518137  0.21761661     0.11900
H1877       H  0.87571824  0.00880409  0.13015709     0.11800
H1878       H  0.90195481  0.04741312  0.15694442     0.11500
H1879       H  0.92048948  0.56659979  0.20250404     0.12100
H1880       H  0.89730558  0.48409843  0.24459473     0.14000
C1881       C  0.89370330  0.53087974  0.39961032    -0.06000
C1882       C  0.89631015  0.54770281  0.42459802    -0.05900
C1883       C  0.88178931  0.53857129  0.44975666    -0.24100
C1884       C  0.86537758  0.51202266  0.45032894     0.18100
C1885       C  0.86285673  0.99499189  0.42520965     0.15400
C1886       C  0.87665607  0.50479021  0.39988468    -0.19100
C1887       C  0.84757985  0.96785264  0.42601184    -0.20900
C1888       C  0.83592363  0.95703809  0.45186876    -0.13500
C1889       C  0.83858771  0.97364234  0.47705154     0.03200
C1890       C  0.85254622  0.50157260  0.47589886    -0.25600
H1891       H  0.90924310  0.56798133  0.42450643     0.08300
H1892       H  0.88393971  0.55187300  0.46890413     0.11900
H1893       H  0.87473922  0.99177181  0.38054570     0.11800
H1894       H  0.84563025  0.95448490  0.40688592     0.11500
H1895       H  0.82548852  0.93537513  0.45235462     0.12100
H1896       H  0.85514682  0.51436109  0.49534206     0.14000
C1897       C  0.79583361  0.84744981  0.10900303    -0.06000
C1898       C  0.80894087  0.81985011  0.10403672    -0.05900
C1899       C  0.79757784  0.79436891  0.11762512    -0.26100
C1900       C  0.77229483  0.79620067  0.13530392     0.18100
C1901       C  0.75912745  0.82405109  0.14024879     0.15400
C1902       C  0.77138680  0.84945684  0.12760908    -0.19100
C1903       C  0.73310980  0.82596334  0.15667075    -0.20900
C1904       C  0.71942028  0.80028655  0.16716859    -0.13500
C1905       C  0.73197721  0.77241429  0.16206081     0.03200
C1906       C  0.75899565  0.77059455  0.14686477    -0.25600
H1907       H  0.82777306  0.81805334  0.08968550     0.08300
H1908       H  0.80788252  0.77314644  0.11353648     0.11900
H1909       H  0.76088083  0.87075554  0.13102382     0.11800
H1910       H  0.72274272  0.84722182  0.16046394     0.11500
H1911       H  0.69863821  0.80216123  0.17871023     0.12100
H1912       H  0.76867778  0.74913248  0.14244802     0.14000
C1913       C  0.77109439  0.52192546  0.09199118    -0.06000
C1914       C  0.77787869  0.54967227  0.07984887    -0.05900
C1915       C  0.76265789  0.57499775  0.08875017    -0.24100
C1916       C  0.74116868  0.57300912  0.11060315     0.18100
C1917       C  0.73446890  0.54518670  0.12317040     0.15400
C1918       C  0.74904305  0.51977983  0.11337647    -0.19100
C1919       C  0.71413261  0.54340434  0.14602778    -0.20900
C1920       C  0.70132853  0.56915551  0.15704398    -0.13500
C1921       C  0.70791104  0.59691862  0.14475323     0.03200
C1922       C  0.72728247  0.59854827  0.12099510    -0.25600
H1923       H  0.79484973  0.55170651  0.06344123     0.08300
H1924       H  0.76820915  0.59623117  0.07907125     0.11900
H1925       H  0.74411913  0.49845699  0.12324787     0.11800
H1926       H  0.70894839  0.52223404  0.15602719     0.11500
H1927       H  0.68676928  0.56746376  0.17552555     0.12100
H1928       H  0.73308076  0.61994587  0.11175661     0.14000
C1929       C  0.90714872  0.90580594  0.03106547    -0.06000
C1930       C  0.93423538  0.92078938  0.03378662    -0.05900
C1931       C  0.95938629  0.91048002  0.51952045    -0.24100
C1932       C  0.95765889  0.88525506  0.50208914     0.18100
C1933       C  0.93032057  0.87060486  0.99848646     0.15400
C1934       C  0.90535683  0.88075175  0.01330051    -0.19100
C1935       C  0.92826659  0.84630276  0.97987532    -0.20900
C1936       C  0.95340208  0.83592932  0.46567406    -0.13500
C1937       C  0.98087970  0.84954402  0.47020470     0.03200
C1938       C  0.98285762  0.87436201  0.48817535    -0.25600
H1939       H  0.93584597  0.94044449  0.04689831     0.08300
H1940       H  0.98021084  0.92214935  0.52211388     0.11900
H1941       H  0.88426564  0.86962642  0.01033534     0.11800
H1942       H  0.90725137  0.83519607  0.97656616     0.11500
H1943       H  0.95164214  0.81686738  0.45178405     0.12100
H1944       H  0.00408859  0.88520799  0.49122997     0.14000
C1945       C  0.65703580  0.84502412  0.46905807    -0.06000
C1946       C  0.68377547  0.82940304  0.46704467    -0.05900
C1947       C  0.70894062  0.83930829  0.48164855    -0.24100
C1948       C  0.70747646  0.86448092  0.49915732     0.18100
C1949       C  0.68057813  0.87991303  0.00186458     0.15400
C1950       C  0.65565180  0.87046042  0.48643269    -0.19100
C1951       C  0.67887276  0.90436581  0.02036578    -0.20900
C1952       C  0.70389594  0.91373334  0.03560792    -0.13500
C1953       C  0.73097833  0.89912681  0.03202146     0.03200
C1954       C  0.73261228  0.87438647  0.01388637    -0.25600
H1955       H  0.68515498  0.80951395  0.45425059     0.08300
H1956       H  0.72944226  0.82703982  0.47958703     0.11900
H1957       H  0.63486800  0.88221383  0.48882613     0.11800
H1958       H  0.65823879  0.91630427  0.02292694     0.11500
H1959       H  0.70239225  0.93291664  0.04936033     0.12100
H1960       H  0.75344216  0.86293369  0.51145147     0.14000
O1961       O  0.87523337  0.94485218  0.54665982    -0.82500
C1962       C  0.75841153  0.91033133  0.54500503     0.96800
O1963       O  0.78072355  0.91235576  0.52889672    -0.71700
O1964       O  0.83105981  0.93247733  0.50853684    -0.75300
Al1965     Al  0.81976129  0.90715294  0.54064895     1.49000
C1966       C  0.83109299  0.96042864  0.50517644     0.92100
O1967       O  0.81496780  0.99623552  0.57831171    -0.81500
O1968       O  0.81738431  0.95231902  0.62274313    -0.75000
Al1969     Al  0.84228775  0.96713469  0.56295852     1.90100
O1970       O  0.77408966  0.97064751  0.58469149    -0.74100
O1971       O  0.80590641  0.89815238  0.60799203    -0.74000
O1972       O  0.76031400  0.91573549  0.57167808    -0.79600
O1973       O  0.80838869  0.87531758  0.56684652    -0.77800
O1974       O  0.81775206  0.93627216  0.56607195    -1.13900
O1975       O  0.85924823  0.89895328  0.54981024    -0.73100
C1976       C  0.87963587  0.91719705  0.54416703     0.97600
C1977       C  0.78748405  0.99508660  0.58392484     0.94000
Al1978     Al  0.79155080  0.93438962  0.59445322     1.55600
O1979       O  0.82795616  0.97723657  0.52639648    -0.77800
C1980       C  0.80519639  0.87467407  0.59383461     0.98100
C1981       C  0.84474430  0.95897803  0.62236368     0.93000
O1982       O  0.85906167  0.96029106  0.59915781    -0.83100
O1983       O  0.94383440  0.62367448  0.81534257    -0.82500
C1984       C  0.96346733  0.50362263  0.83257474     0.96800
O1985       O  0.97713664  0.52790042  0.83255371    -0.71700
O1986       O  0.99093665  0.58255888  0.81854732    -0.75300
Al1987     Al  0.96065930  0.56428675  0.84281344     1.49000
C1988       C  0.99188214  0.58819646  0.79179440     0.92100
O1989       O  0.91761251  0.56742317  0.75855122    -0.81500
O1990       O  0.87519458  0.55511309  0.79881173    -0.75000
Al1991     Al  0.93068059  0.59222339  0.79006184     1.90100
O1992       O  0.92103769  0.52239288  0.77638993    -0.74100
O1993       O  0.89326138  0.53907030  0.85026563    -0.74000
O1994       O  0.93584368  0.50277594  0.82796555    -0.79600
O1995       O  0.93570042  0.54648992  0.87231855    -0.77800
O1996       O  0.93337251  0.56290096  0.81555404    -1.13900
O1997       O  0.94775113  0.60093540  0.85673110    -0.73100
C1998       C  0.94847936  0.62442604  0.84211492     0.97600
C1999       C  0.91751822  0.53951442  0.75518044     0.94000
Al2000     Al  0.90840311  0.53232401  0.81360030     1.55600
O2001       O  0.96902373  0.58646597  0.77656096    -0.77800
C2002       C  0.90830674  0.54002709  0.87290292     0.98100
C2003       C  0.87101781  0.58284644  0.79674723     0.93000
O2004       O  0.89183723  0.60080474  0.80127030    -0.83100
O2005       O  0.68777416  0.74589615  0.67336269    -0.82500
C2006       C  0.69853086  0.62474509  0.65854931     0.96800
O2007       O  0.69847550  0.64834259  0.64400993    -0.71700
O2008       O  0.68800733  0.70342517  0.62892521    -0.75300
Al2009     Al  0.71203683  0.68472771  0.65830580     1.49000
C2010       C  0.66072843  0.71009552  0.62788896     0.92100
O2011       O  0.62596324  0.69397120  0.70179241    -0.81500
O2012       O  0.66840255  0.68147129  0.74266450    -0.75000
Al2013     Al  0.65966475  0.71661555  0.68725245     1.90100
O2014       O  0.64235407  0.64826391  0.70002213    -0.74100
O2015       O  0.71966615  0.66214649  0.72427027    -0.74000
O2016       O  0.69391492  0.62541682  0.68536931    -0.79600
O2017       O  0.74171047  0.66575182  0.68219656    -0.77800
O2018       O  0.68439163  0.68602989  0.68546621    -1.13900
O2019       O  0.72905282  0.72084542  0.66925591    -0.73100
C2020       C  0.71554871  0.74515532  0.66934466     0.97600
C2021       C  0.62161394  0.66627424  0.70425015     0.94000
Al2022     Al  0.68125584  0.65669566  0.71095584     1.55600
O2023       O  0.64504510  0.71018848  0.65027600    -0.77800
C2024       C  0.74250800  0.66018608  0.70891489     0.98100
C2025       C  0.66807166  0.70939451  0.74574465     0.93000
O2026       O  0.67174483  0.72641710  0.72447770    -0.83100
O2027       O  0.50983669  0.83251327  0.93067348    -0.82500
C2028       C  0.62950449  0.83342500  0.95612926     0.96800
O2029       O  0.60868751  0.85127974  0.95130495    -0.71700
O2030       O  0.55708675  0.87334044  0.93485084    -0.75300
Al2031     Al  0.56932412  0.84192470  0.96088632     1.49000
C2032       C  0.55327316  0.87419792  0.90793550     0.92100
O2033       O  0.56584197  0.79623469  0.87883225    -0.81500
O2034       O  0.56516660  0.75280962  0.92324340    -0.75000
Al2035     Al  0.54067212  0.81416569  0.90757568     1.90100
O2036       O  0.60834187  0.78953120  0.90088494    -0.74100
O2037       O  0.57945354  0.77217234  0.97470557    -0.74000
O2038       O  0.62551369  0.80572062  0.95309058    -0.79600
O2039       O  0.58150447  0.81690676  0.99281369    -0.77800
O2040       O  0.56750777  0.81288423  0.93533030    -1.13900
O2041       O  0.53044654  0.83568849  0.97322372    -0.73100
C2042       C  0.50811503  0.83786531  0.95731493     0.97600
C2043       C  0.59318927  0.78978409  0.87822859     0.94000
Al2044     Al  0.59257499  0.78257057  0.93773459     1.55600
O2045       O  0.55422489  0.85082080  0.89351755    -0.77800
C2046       C  0.58250776  0.78897696  0.99591784     0.98100
C2047       C  0.53754450  0.75348589  0.91830146     0.93000
O2048       O  0.52384416  0.77768615  0.91815222    -0.83100
C2049       C  0.64724282  0.71986652  0.60073379    -0.06000
C2050       C  0.65712731  0.70868328  0.57442958    -0.05900
C2051       C  0.64472827  0.71886209  0.54876130    -0.24100
C2052       C  0.62293032  0.74099712  0.54906709     0.18100
C2053       C  0.61327877  0.75285603  0.57544255     0.15400
C2054       C  0.62509568  0.74177499  0.60113442    -0.19100
C2055       C  0.59263226  0.77613246  0.57556923    -0.20900
C2056       C  0.58203406  0.78790765  0.54969084    -0.13500
C2057       C  0.59113908  0.77579178  0.52351436     0.03200
C2058       C  0.61129425  0.75210245  0.52337802    -0.25600
H2059       H  0.67428340  0.69195343  0.57378492     0.08300
H2060       H  0.65255463  0.70981124  0.52864180     0.11900
H2061       H  0.61784313  0.75095303  0.62142115     0.11800
H2062       H  0.58524885  0.78567057  0.59562853     0.11500
H2063       H  0.56681159  0.80642584  0.55006362     0.12100
H2064       H  0.61902120  0.74323411  0.50311599     0.14000
C2065       C  0.65997933  0.72259354  0.77347899    -0.06000
C2066       C  0.66873654  0.70984664  0.79964544    -0.05900
C2067       C  0.65905809  0.72196725  0.82562637    -0.24100
C2068       C  0.63963384  0.74629947  0.82566418     0.18100
C2069       C  0.63042282  0.75888786  0.79932234     0.15400
C2070       C  0.64117215  0.74738671  0.77351027    -0.19100
C2071       C  0.60980818  0.78212860  0.79914195    -0.20900
C2072       C  0.59789697  0.79246965  0.82487657    -0.13500
C2073       C  0.60714622  0.78041329  0.85116863     0.03200
C2074       C  0.62842130  0.75762120  0.85148232    -0.25600
H2075       H  0.68303626  0.69059233  0.79995263     0.08300
H2076       H  0.66613450  0.71188559  0.84562411     0.11900
H2077       H  0.63378128  0.75688608  0.75332329     0.11800
H2078       H  0.60235912  0.79179234  0.77908090     0.11500
H2079       H  0.58141637  0.80988521  0.82427059     0.12100
H2080       H  0.63517230  0.74780405  0.87173482     0.14000
C2081       C  0.84340296  0.59455090  0.78470672    -0.06000
C2082       C  0.81593732  0.58101033  0.79011435    -0.05900
C2083       C  0.79043672  0.59172001  0.77659338    -0.24100
C2084       C  0.79242752  0.61538985  0.75684586     0.18100
C2085       C  0.82023537  0.62841913  0.75065967     0.15400
C2086       C  0.84536372  0.61828931  0.76504311    -0.19100
C2087       C  0.82254780  0.65105765  0.72987194    -0.20900
C2088       C  0.79731420  0.66109559  0.71555443    -0.13500
C2089       C  0.76953496  0.64911316  0.72247854     0.03200
C2090       C  0.76718714  0.62615047  0.74297893    -0.25600
H2091       H  0.81425332  0.56233096  0.80480673     0.08300
H2092       H  0.76927458  0.58127615  0.78125059     0.11900
H2093       H  0.86674973  0.62818091  0.76009715     0.11800
H2094       H  0.84384800  0.66094039  0.72468894     0.11500
H2095       H  0.79933456  0.67866929  0.69966491     0.12100
H2096       H  0.74569590  0.61644820  0.74785315     0.14000
C2097       C  0.51912243  0.59955154  0.77831889    -0.06000
C2098       C  0.54702028  0.58934370  0.78684355    -0.05900
C2099       C  0.57251785  0.59994672  0.77307025    -0.24100
C2100       C  0.57035287  0.62142300  0.75117272     0.18100
C2101       C  0.54237954  0.63265029  0.74319781     0.15400
C2102       C  0.51690659  0.62128000  0.75654551    -0.19100
C2103       C  0.54046545  0.65522034  0.72225994    -0.20900
C2104       C  0.56619430  0.66651250  0.70924697    -0.13500
C2105       C  0.59386273  0.65460463  0.71639422     0.03200
C2106       C  0.59576727  0.63211553  0.73736821    -0.25600
H2107       H  0.04889741  0.57177963  0.80282459     0.08300
H2108       H  0.59392651  0.59145604  0.77959630     0.11900
H2109       H  0.49533410  0.62971382  0.75037203     0.11800
H2110       H  0.51915187  0.66430771  0.71620601     0.11500
H2111       H  0.56451968  0.68420792  0.69347338     0.12100
H2112       H  0.61726868  0.62353031  0.74359009     0.14000
C2113       C  0.95846502  0.65200204  0.85606402    -0.06000
C2114       C  0.45147877  0.67990615  0.84447852    -0.05900
C2115       C  0.46422527  0.70553348  0.85592429    -0.24100
C2116       C  0.48467847  0.70346901  0.87853072     0.18100
C2117       C  0.99197004  0.67552825  0.89022650     0.15400
C2118       C  0.97819843  0.65005593  0.87940735    -0.19100
C2119       C  0.01363363  0.67335378  0.91176597    -0.20900
C2120       C  0.02861037  0.69871653  0.92115221    -0.13500
C2121       C  0.52121929  0.72652294  0.90992455     0.03200
C2122       C  0.49902749  0.72883707  0.88883570    -0.25600
H2123       H  0.43670382  0.68185810  0.82629024     0.08300
H2124       H  0.45882264  0.72687964  0.84649870     0.11900
H2125       H  0.98419738  0.62851604  0.88808422     0.11800
H2126       H  0.01950103  0.65196561  0.92082498     0.11500
H2127       H  0.04573700  0.69655307  0.93726325     0.12100
H2128       H  0.49383208  0.75032179  0.87953698     0.14000
C2129       C  0.97984894  0.97672419  0.84071114    -0.06000
C2130       C  0.97190320  0.94883928  0.83008408    -0.05900
C2131       C  0.98692970  0.92342631  0.83935580    -0.24100
C2132       C  0.00937630  0.92553695  0.86009022     0.18100
C2133       C  0.51743719  0.95337370  0.87099168     0.15400
C2134       C  0.00284397  0.97894292  0.86091719    -0.19100
C2135       C  0.53862665  0.95532739  0.89292023    -0.20900
C2136       C  0.55125762  0.92961936  0.90450432    -0.13500
C2137       C  0.54367576  0.90175566  0.89358515     0.03200
C2138       C  0.52332871  0.89987494  0.87080318    -0.25600
H2139       H  0.95449142  0.44673292  0.81427894     0.08300
H2140       H  0.98048483  0.90205666  0.83089127     0.11900
H2141       H  0.50888404  0.00024932  0.86954034     0.11800
H2142       H  0.54464568  0.97664433  0.90178060     0.11500
H2143       H  0.56656690  0.93142972  0.92226312     0.12100
H2144       H  0.51674714  0.87834915  0.86275067     0.14000
C2145       C  0.85986374  0.96777505  0.64882577    -0.06000
C2146       C  0.85879692  0.94994016  0.67356995    -0.05900
C2147       C  0.87265276  0.45929109  0.69875811    -0.24100
C2148       C  0.88684857  0.48705999  0.69969176     0.18100
C2149       C  0.88792737  0.00510520  0.67477462     0.15400
C2150       C  0.87502268  0.99500689  0.64933488    -0.19100
C2151       C  0.90086234  0.03340052  0.67597667    -0.20900
C2152       C  0.91165339  0.54422533  0.70192670    -0.13500
C2153       C  0.91027886  0.52671801  0.72695034     0.03200
C2154       C  0.89860715  0.49774958  0.72546255    -0.25600
H2155       H  0.84733309  0.92879807  0.67333111     0.08300
H2156       H  0.87151344  0.44525589  0.71770871     0.11900
H2157       H  0.87559646  0.00888345  0.63021645     0.11800
H2158       H  0.90173817  0.04750649  0.65706228     0.11500
H2159       H  0.92040184  0.56660621  0.70260137     0.12100
H2160       H  0.89700503  0.48417876  0.74471872     0.14000
C2161       C  0.89374743  0.53095644  0.89971797    -0.06000
C2162       C  0.89607690  0.54789229  0.92465801    -0.05900
C2163       C  0.88151495  0.53871220  0.94977985    -0.24100
C2164       C  0.86533368  0.51202117  0.95035818     0.18100
C2165       C  0.86304279  0.99484503  0.92528640     0.15400
C2166       C  0.87696379  0.50470119  0.90000310    -0.19100
C2167       C  0.84803819  0.96755696  0.92610077    -0.20900
C2168       C  0.83634541  0.95672156  0.95193096    -0.13500
C2169       C  0.83871064  0.97343945  0.97707157     0.03200
C2170       C  0.85242179  0.50156428  0.97588764    -0.25600
H2171       H  0.90880505  0.56829958  0.92454979     0.08300
H2172       H  0.88343435  0.55210543  0.96889073     0.11900
H2173       H  0.87517289  0.99159673  0.88068884     0.11800
H2174       H  0.84632713  0.95410293  0.90700971     0.11500
H2175       H  0.82612454  0.93495743  0.95243336     0.12100
H2176       H  0.85479094  0.51444897  0.99529877     0.14000
C2177       C  0.79582073  0.84752585  0.60891665    -0.06000
C2178       C  0.80895641  0.81993586  0.60397054    -0.05900
C2179       C  0.79762608  0.79445573  0.61758913    -0.26100
C2180       C  0.77235052  0.79627994  0.63528021     0.18100
C2181       C  0.75915819  0.82412273  0.64020346     0.15400
C2182       C  0.77138070  0.84952590  0.62752944    -0.19100
C2183       C  0.73315258  0.82603068  0.65664173    -0.20900
C2184       C  0.71949228  0.80035402  0.66717106    -0.13500
C2185       C  0.73206452  0.77248617  0.66207568     0.03200
C2186       C  0.75907947  0.77067277  0.64687208    -0.25600
H2187       H  0.82778820  0.81814654  0.58961767     0.08300
H2188       H  0.80795144  0.77324013  0.61351792     0.11900
H2189       H  0.76085652  0.87081780  0.63093107     0.11800
H2190       H  0.72276907  0.84728368  0.66041993     0.11500
H2191       H  0.69871281  0.80222433  0.67871812     0.12100
H2192       H  0.76877368  0.74921399  0.64246664     0.14000
C2193       C  0.77113384  0.52197312  0.59194463    -0.06000
C2194       C  0.77798861  0.54972046  0.57983895    -0.05900
C2195       C  0.76276432  0.57505841  0.58870364    -0.24100
C2196       C  0.74119746  0.57308177  0.61048575     0.18100
C2197       C  0.73441600  0.54525723  0.62300739     0.15400
C2198       C  0.74899647  0.51983912  0.61324763    -0.19100
C2199       C  0.71399685  0.54348241  0.64579555    -0.20900
C2200       C  0.70120144  0.56924240  0.65680126    -0.13500
C2201       C  0.70787553  0.59700954  0.64456621     0.03200
C2202       C  0.72731856  0.59863343  0.62086208    -0.25600
H2203       H  0.79502177  0.55174706  0.56349082     0.08300
H2204       H  0.76837636  0.59629149  0.57905814     0.11900
H2205       H  0.74401112  0.49851648  0.62308936     0.11800
H2206       H  0.70874573  0.52231022  0.65575723     0.11500
H2207       H  0.68658176  0.56755355  0.67523848     0.12100
H2208       H  0.73318283  0.62003211  0.61166610     0.14000
C2209       C  0.90704894  0.90592587  0.53098138    -0.06000
C2210       C  0.93409807  0.92100886  0.53355718    -0.05900
C2211       C  0.95952876  0.91025304  0.01976416    -0.24100
C2212       C  0.95776877  0.88512914  0.00219981     0.18100
C2213       C  0.93024723  0.87061932  0.49852539     0.15400
C2214       C  0.90529120  0.88076648  0.51335047    -0.19100
C2215       C  0.92821949  0.84620536  0.48004925    -0.20900
C2216       C  0.95345628  0.83602488  0.96551129    -0.13500
C2217       C  0.98096493  0.84952137  0.97018819     0.03200
C2218       C  0.98297015  0.87423079  0.98829644    -0.25600
H2219       H  0.93568383  0.94074259  0.54656142     0.08300
H2220       H  0.98038368  0.92183845  0.02247301     0.11900
H2221       H  0.88422968  0.86955375  0.51049352     0.11800
H2222       H  0.90723169  0.83500893  0.47685661     0.11500
H2223       H  0.95167283  0.81705217  0.95151087     0.12100
H2224       H  0.00422478  0.88499471  0.99146164     0.14000
C2225       C  0.65708190  0.84497064  0.96902724    -0.06000
C2226       C  0.68383553  0.82938274  0.96694938    -0.05900
C2227       C  0.70901833  0.83929921  0.98151913    -0.24100
C2228       C  0.70756032  0.86444699  0.99906233     0.18100
C2229       C  0.68050401  0.87997513  0.50190106     0.15400
C2230       C  0.65570638  0.87039102  0.98642554    -0.19100
C2231       C  0.67879037  0.90445659  0.52036553    -0.20900
C2232       C  0.70380326  0.91383677  0.53561383    -0.13500
C2233       C  0.73087915  0.89920801  0.53207304     0.03200
C2234       C  0.73251647  0.87442732  0.51399271    -0.25600
H2235       H  0.68521211  0.80950992  0.95413162     0.08300
H2236       H  0.72952841  0.82705314  0.97941001     0.11900
H2237       H  0.63491452  0.88212056  0.98886472     0.11800
H2238       H  0.65816224  0.91641461  0.52288327     0.11500
H2239       H  0.70230043  0.93305066  0.54932674     0.12100
H2240       H  0.75354055  0.86290656  0.01130679     0.14000
loop_ 
_geom_bond_atom_site_label_1 
_geom_bond_atom_site_label_2 
_geom_bond_distance 
_geom_bond_site_symmetry_2 
_ccdc_geom_bond_type 
O1           C16   1.270       .  A
O1           Al9   1.952       .  S
C2           O12   1.272       .  A
C2            O3   1.256       .  A
C2          C273   1.471       .  S
O3           Al5   1.861       .  S
O4            C6   1.269       .  A
O4           Al5   1.940       .  S
Al5          O13   1.943       .  S
Al5          O15   1.871       .  S
Al5          O14   1.778       .  S
C6           O19   1.259       .  A
C6          C489   1.473   1_554  S
O7           C17   1.267       .  A
O7           Al9   1.943       .  S
O8           C21   1.270       .  A
O8          Al18   1.942       .  S
Al9          O22   1.874       .  S
Al9          O19   1.877       .  S
Al9          O14   1.780       .  S
O10          C17   1.255       .  A
O10         Al18   1.870       .  S
O11          C20   1.253       .  A
O11         Al18   1.865       .  S
O12         Al18   1.959       .  S
O13          C20   1.265       .  A
O14         Al18   1.772       .  S
O15          C16   1.258       .  A
C16         C249   1.473       .  S
C17         C793   1.474       .  S
C20         C217   1.467       .  S
C21          O22   1.258       .  A
C21         C185   1.468       .  S
O23          C38   1.266       .  A
O23         Al31   1.944       .  S
C24          O34   1.266       .  A
C24          O25   1.255       .  A
C24         C729   1.472   1_545  S
O25         Al27   1.869       .  S
O26          C28   1.270       .  A
O26         Al27   1.947       .  S
Al27         O35   1.941       .  S
Al27         O37   1.874       .  S
Al27         O36   1.773       .  S
C28          O41   1.257       .  A
C28        C1257   1.466       .  S
O29          C39   1.270       .  A
O29         Al31   1.945       .  S
O30          C43   1.268       .  A
O30         Al40   1.944       .  S
Al31         O44   1.869       .  S
Al31         O41   1.858       .  S
Al31         O36   1.774       .  S
O32          C39   1.260       .  A
O32         Al40   1.881       .  S
O33          C42   1.257       .  A
O33         Al40   1.865       .  S
O34         Al40   1.938       .  S
O35          C42   1.269       .  A
O36         Al40   1.781       .  S
O37          C38   1.255       .  A
C38         C153   1.478       .  S
C39         C193   1.478       .  S
C42         C201   1.464       .  S
C43          O44   1.258       .  A
C43         C121   1.466       .  S
O45          C60   1.267       .  A
O45         Al53   1.934       .  S
C46          O56   1.267       .  A
C46          O47   1.256       .  A
C46         C241   1.477       .  S
O47         Al49   1.878       .  S
O48          C50   1.269       .  A
O48         Al49   1.938       .  S
Al49         O57   1.940       .  S
Al49         O59   1.874       .  S
Al49         O58   1.775       .  S
C50          O63   1.258       .  A
C50          C89   1.470       .  S
O51          C61   1.268       .  A
O51         Al53   1.945       .  S
O52          C65   1.269       .  A
O52         Al62   1.948       .  S
Al53         O66   1.876       .  S
Al53         O63   1.871       .  S
Al53         O58   1.779       .  S
O54          C61   1.257       .  A
O54         Al62   1.868       .  S
O55          C64   1.256       .  A
O55         Al62   1.859       .  S
O56         Al62   1.941       .  S
O57          C64   1.268       .  A
O58         Al62   1.775       .  S
O59          C60   1.256       .  A
C60         C225   1.475       .  S
C61         C145   1.466       .  S
C64         C129   1.462       .  S
C65          O66   1.258       .  A
C65         C105   1.473       .  S
O67          C82   1.269       .  A
O67         Al75   1.947       .  S
C68          O78   1.271       .  A
C68          O69   1.258       .  A
C68         C265   1.479       .  S
O69         Al71   1.876       .  S
O70          C72   1.267       .  A
O70         Al71   1.940       .  S
Al71         O79   1.941       .  S
Al71         O81   1.864       .  S
Al71         O80   1.779       .  S
C72          O85   1.256       .  A
C72         C177   1.473       .  S
O73          C83   1.269       .  A
O73         Al75   1.937       .  S
O74          C87   1.268       .  A
O74         Al84   1.949       .  S
Al75         O88   1.871       .  S
Al75         O85   1.873       .  S
Al75         O80   1.775       .  S
O76          C83   1.260       .  A
O76         Al84   1.880       .  S
O77          C86   1.258       .  A
O77         Al84   1.875       .  S
O78         Al84   1.954       .  S
O79          C86   1.267       .  A
O80         Al84   1.780       .  S
O81          C82   1.256       .  A
C82        C1377   1.466   1_455  S
C83         C113   1.473       .  S
C86         C377   1.469       .  S
C87          O88   1.256       .  A
C87         C161   1.476       .  S
C89          C90   1.401       .  A
C89          C94   1.407       .  A
C90          C91   1.397       .  A
C90          H99   1.083       .  S
C91          C92   1.404       .  A
C91         H100   1.084       .  S
C92          C98   1.398       .  A
C92          C93   1.412       .  A
C93          C95   1.406       .  A
C93          C94   1.401       .  A
C94         H101   1.085       .  S
C95          C96   1.399       .  A
C95         H102   1.084       .  S
C96          C97   1.401       .  A
C96         H103   1.083       .  S
C97         C366   1.469   1_554  S
C97          C98   1.405       .  A
C98         H104   1.085       .  S
C105        C106   1.402       .  A
C105        C110   1.406       .  A
C106        C107   1.401       .  A
C106        H115   1.083       .  S
C107        C108   1.406       .  A
C107        H116   1.083       .  S
C108        C114   1.404       .  A
C108        C109   1.412       .  A
C109        C111   1.403       .  A
C109        C110   1.400       .  A
C110        H117   1.084       .  S
C111        C112   1.397       .  A
C111        H118   1.083       .  S
C112        C113   1.401       .  A
C112        H119   1.083       .  S
C113        C114   1.409       .  A
C114        H120   1.084       .  S
C121        C122   1.401       .  A
C121        C126   1.405       .  A
C122        C123   1.399       .  A
C122        H131   1.083       .  S
C123        C124   1.406       .  A
C123        H132   1.084       .  S
C124        C130   1.397       .  A
C124        C125   1.412       .  A
C125        C127   1.404       .  A
C125        C126   1.395       .  A
C126        H133   1.085       .  S
C127        C128   1.396       .  A
C127        H134   1.084       .  S
C128        C129   1.399       .  A
C128        H135   1.083       .  S
C129        C130   1.406       .  A
C130        H136   1.085       .  S
C137       C1148   1.467   1_455  S
C137        C138   1.399       .  A
C137        C142   1.408       .  A
C138        C139   1.396       .  A
C138       H1267   1.083       .  S
C139        C140   1.404       .  A
C139        H148   1.084       .  S
C140        C146   1.395       .  A
C140        C141   1.411       .  A
C141        C143   1.407       .  A
C141        C142   1.399       .  A
C142        H149   1.085   1_455  S
C143        C144   1.400       .  A
C143        H150   1.084       .  S
C144        C145   1.400       .  A
C144        H151   1.083       .  S
C145        C146   1.405       .  A
C146        H152   1.085       .  S
H147       C1258   1.083       .  S
C153        C158   1.410       .  A
C153       C1274   1.402       .  A
C154        C155   1.400       .  A
C154       C1273   1.402       .  A
C154        H163   1.083       .  S
C155        C156   1.405       .  A
C155        H164   1.083       .  S
C156        C162   1.402       .  A
C156       C1277   1.411       .  A
C157        C159   1.406       .  A
C157        C158   1.403       .  A
C157       C1276   1.411       .  A
C158        H165   1.084       .  S
C159        C160   1.401       .  A
C159        H166   1.083       .  S
C160       C1281   1.401       .  A
C160        H167   1.083       .  S
C161        C162   1.409   1_455  A
C161       C1280   1.402       .  A
C162        H168   1.084       .  S
C169        C584   1.472       .  S
C169        C170   1.401       .  A
C169        C174   1.407       .  A
C170        C171   1.399       .  A
C170        H739   1.083       .  S
C171        C172   1.406       .  A
C171        H180   1.084       .  S
C172       C1298   1.400       .  A
C172       C1293   1.411       .  A
C173        C175   1.405       .  A
C173       C1292   1.411       .  A
C173       C1294   1.400       .  A
C174       C1293   1.399       .  A
C174       H1301   1.085       .  S
C175        C176   1.398       .  A
C175        H182   1.084       .  S
C176        C177   1.402       .  A
C176        H183   1.083       .  S
C177        C178   1.409       .  A
C178       C1292   1.400       .  A
C178        H184   1.085       .  S
H179        C730   1.083       .  S
H181       C1294   1.085       .  S
C185        C186   1.401       .  A
C185        C190   1.404       .  A
C186        C747   1.400       .  A
C186        H195   1.083       .  S
C187        C188   1.406       .  A
C187        C746   1.400       .  A
C187        H196   1.083       .  S
C188        C194   1.403       .  A
C188        C749   1.413   1_565  A
C189        C191   1.403       .  A
C189        C190   1.401       .  A
C189        C748   1.413       .  A
C190        H197   1.084       .  S
C191        C752   1.398       .  A
C191        H198   1.083       .  S
C192        C193   1.403       .  A
C192        C751   1.398       .  A
C192        H199   1.083       .  S
C193        C194   1.409   1_545  A
C194        H200   1.084       .  S
C201        C202   1.400       .  A
C201        C206   1.403       .  A
C202        C203   1.399       .  A
C202        H211   1.083       .  S
C203        C204   1.406       .  A
C203        H212   1.084       .  S
C204        C210   1.400       .  A
C204        C765   1.412   1_545  A
C205        C207   1.403       .  A
C205        C764   1.412       .  A
C205        C766   1.398       .  A
C206        C765   1.398   1_545  A
C206        H773   1.085   1_545  S
C207        C208   1.396       .  A
C207        H214   1.084       .  S
C208        C209   1.403       .  A
C208        H215   1.083       .  S
C209        C286   1.472       .  S
C209        C770   1.408       .  A
C210        C769   1.408   1_545  A
C210        H216   1.085       .  S
H213        C766   1.085       .  S
C217        C218   1.400       .  A
C217        C222   1.404       .  A
C218        C219   1.402       .  A
C218        H227   1.083       .  S
C219        C220   1.408       .  A
C219        H228   1.083       .  S
C220        C226   1.402       .  A
C220        C221   1.411       .  A
C221        C223   1.402       .  A
C221        C222   1.395       .  A
C222        H229   1.085       .  S
C223        C224   1.395       .  A
C223        H230   1.084       .  S
C224        C225   1.402       .  A
C224        H231   1.083       .  S
C225        C226   1.411       .  A
C226        H232   1.084       .  S
C233        C577   1.474   1_545  S
C233        C234   1.401       .  A
C233        C238   1.408       .  A
C234        C235   1.400       .  A
C234        H243   1.083       .  S
C235        C236   1.406       .  A
C235        H244   1.083       .  S
C236        C242   1.402       .  A
C236        C237   1.411       .  A
C237        C239   1.405       .  A
C237        C238   1.402       .  A
C238        H245   1.084   1_545  S
C239        C240   1.399       .  A
C239        H246   1.083       .  S
C240        C241   1.403       .  A
C240        H247   1.083       .  S
C241        C242   1.409       .  A
C242        H248   1.084       .  S
C249        C250   1.401       .  A
C249        C254   1.409       .  A
C250        C531   1.399       .  A
C250        H259   1.083       .  S
C251        C252   1.405       .  A
C251        C530   1.399       .  A
C251        H260   1.083       .  S
C252        C258   1.399       .  A
C252        C533   1.411       .  A
C253        C255   1.406       .  A
C253        C254   1.399   1_556  A
C253        C532   1.411   1_556  A
C254        H261   1.084       .  S
C255        C536   1.399       .  A
C255        H262   1.083       .  S
C256        C257   1.399       .  A
C256        C535   1.399       .  A
C256        H263   1.083       .  S
C257       C1202   1.466       .  S
C257        C258   1.406       .  A
C258        H264   1.085       .  S
C265        C266   1.402       .  A
C265        C270   1.411       .  A
C266        C267   1.400       .  A
C266        H275   1.083       .  S
C267        C268   1.405       .  A
C267        H276   1.084       .  S
C268        C554   1.401       .  A
C268        C549   1.411       .  A
C269        C271   1.408       .  A
C269        C548   1.411   1_554  A
C269        C550   1.403   1_554  A
C270        C549   1.403       .  A
C270        H277   1.084       .  S
C271        C272   1.402       .  A
C271        H278   1.084       .  S
C272        C273   1.400       .  A
C272        H279   1.083       .  S
C273        C274   1.407       .  A
C274        C548   1.401   1_554  A
C274        H560   1.085       .  S
H280        C554   1.085       .  S
O281        C296   1.270       .  A
O281       Al289   1.952       .  S
C282        O292   1.272       .  A
C282        O283   1.256       .  A
C282        C553   1.471       .  S
O283       Al285   1.861       .  S
O284        C286   1.269       .  A
O284       Al285   1.940       .  S
Al285       O293   1.942       .  S
Al285       O295   1.871       .  S
Al285       O294   1.778       .  S
C286        O299   1.259       .  A
O287        C297   1.267       .  A
O287       Al289   1.943       .  S
O288        C301   1.270       .  A
O288       Al298   1.943       .  S
Al289       O302   1.874       .  S
Al289       O299   1.877       .  S
Al289       O294   1.780       .  S
O290        C297   1.255       .  A
O290       Al298   1.871       .  S
O291        C300   1.253       .  A
O291       Al298   1.865       .  S
O292       Al298   1.959       .  S
O293        C300   1.265       .  A
O294       Al298   1.772       .  S
O295        C296   1.258       .  A
C296        C529   1.473       .  S
C297       C1073   1.474       .  S
C300        C497   1.467       .  S
C301        O302   1.258       .  A
C301        C465   1.468       .  S
O303        C318   1.266       .  A
O303       Al311   1.944       .  S
C304        O314   1.266       .  A
C304        O305   1.255       .  A
C304       C1009   1.472   1_545  S
O305       Al307   1.869       .  S
O306        C308   1.270       .  A
O306       Al307   1.947       .  S
Al307       O315   1.940       .  S
Al307       O317   1.874       .  S
Al307       O316   1.773       .  S
C308        O321   1.257       .  A
C308       C1537   1.466       .  S
O309        C319   1.270       .  A
O309       Al311   1.945       .  S
O310        C323   1.268       .  A
O310       Al320   1.944       .  S
Al311       O324   1.869       .  S
Al311       O321   1.858       .  S
Al311       O316   1.774       .  S
O312        C319   1.260       .  A
O312       Al320   1.881       .  S
O313        C322   1.257       .  A
O313       Al320   1.866       .  S
O314       Al320   1.938       .  S
O315        C322   1.269       .  A
O316       Al320   1.781       .  S
O317        C318   1.255       .  A
C318        C433   1.478       .  S
C319        C473   1.478       .  S
C322        C481   1.464       .  S
C323        O324   1.258       .  A
C323        C401   1.466       .  S
O325        C340   1.267       .  A
O325       Al333   1.934       .  S
C326        O336   1.267       .  A
C326        O327   1.257       .  A
C326        C521   1.477       .  S
O327       Al329   1.877       .  S
O328        C330   1.269       .  A
O328       Al329   1.938       .  S
Al329       O337   1.940       .  S
Al329       O339   1.874       .  S
Al329       O338   1.775       .  S
C330        O343   1.258       .  A
C330        C369   1.471       .  S
O331        C341   1.268       .  A
O331       Al333   1.946       .  S
O332        C345   1.269       .  A
O332       Al342   1.948       .  S
Al333       O346   1.875       .  S
Al333       O343   1.872       .  S
Al333       O338   1.779       .  S
O334        C341   1.257       .  A
O334       Al342   1.868       .  S
O335        C344   1.256       .  A
O335       Al342   1.859       .  S
O336       Al342   1.941       .  S
O337        C344   1.268       .  A
O338       Al342   1.775       .  S
O339        C340   1.256       .  A
C340        C505   1.475       .  S
C341        C425   1.467       .  S
C344        C409   1.462       .  S
C345        O346   1.258       .  A
C345        C385   1.473       .  S
O347        C362   1.269       .  A
O347       Al355   1.947       .  S
C348        O358   1.271       .  A
C348        O349   1.259       .  A
C348        C545   1.479       .  S
O349       Al351   1.876       .  S
O350        C352   1.267       .  A
O350       Al351   1.939       .  S
Al351       O359   1.941       .  S
Al351       O361   1.864       .  S
Al351       O360   1.779       .  S
C352        O365   1.256       .  A
C352        C457   1.473       .  S
O353        C363   1.269       .  A
O353       Al355   1.937       .  S
O354        C367   1.268       .  A
O354       Al364   1.948       .  S
Al355       O368   1.871       .  S
Al355       O365   1.873       .  S
Al355       O360   1.775       .  S
O356        C363   1.260       .  A
O356       Al364   1.880       .  S
O357        C366   1.258       .  A
O357       Al364   1.875       .  S
O358       Al364   1.954       .  S
O359        C366   1.267       .  A
O360       Al364   1.780       .  S
O361        C362   1.256       .  A
C362       C1657   1.466   1_455  S
C363        C393   1.473       .  S
C367        O368   1.256       .  A
C367        C441   1.476       .  S
C369        C370   1.401       .  A
C369        C374   1.408       .  A
C370        C371   1.397       .  A
C370        H379   1.083       .  S
C371        C372   1.403       .  A
C371        H380   1.084       .  S
C372        C378   1.398       .  A
C372        C373   1.412       .  A
C373        C375   1.406       .  A
C373        C374   1.401       .  A
C374        H381   1.085       .  S
C375        C376   1.400       .  A
C375        H382   1.084       .  S
C376        C377   1.401       .  A
C376        H383   1.083       .  S
C377        C378   1.405       .  A
C378        H384   1.085       .  S
C385        C386   1.402       .  A
C385        C390   1.406       .  A
C386        C387   1.401       .  A
C386        H395   1.083       .  S
C387        C388   1.406       .  A
C387        H396   1.083       .  S
C388        C394   1.404       .  A
C388        C389   1.412       .  A
C389        C391   1.403       .  A
C389        C390   1.400       .  A
C390        H397   1.084       .  S
C391        C392   1.397       .  A
C391        H398   1.083       .  S
C392        C393   1.401       .  A
C392        H399   1.083       .  S
C393        C394   1.409       .  A
C394        H400   1.084       .  S
C401        C402   1.401       .  A
C401        C406   1.405       .  A
C402        C403   1.399       .  A
C402        H411   1.083       .  S
C403        C404   1.406       .  A
C403        H412   1.084       .  S
C404        C410   1.397       .  A
C404        C405   1.411       .  A
C405        C407   1.404       .  A
C405        C406   1.395       .  A
C406        H413   1.085       .  S
C407        C408   1.396       .  A
C407        H414   1.084       .  S
C408        C409   1.399       .  A
C408        H415   1.083       .  S
C409        C410   1.406       .  A
C410        H416   1.085       .  S
C417       C1428   1.466   1_455  S
C417        C418   1.399       .  A
C417        C422   1.408       .  A
C418        C419   1.396       .  A
C418       H1547   1.083       .  S
C419        C420   1.405       .  A
C419        H428   1.084       .  S
C420        C426   1.396       .  A
C420        C421   1.411       .  A
C421        C423   1.407       .  A
C421        C422   1.399       .  A
C422        H429   1.085   1_455  S
C423        C424   1.400       .  A
C423        H430   1.084       .  S
C424        C425   1.401       .  A
C424        H431   1.083       .  S
C425        C426   1.405       .  A
C426        H432   1.085       .  S
H427       C1538   1.083       .  S
C433       C1554   1.402       .  A
C433        C438   1.410       .  A
C434       C1553   1.402       .  A
C434        C435   1.400       .  A
C434        H443   1.083       .  S
C435        C436   1.405       .  A
C435        H444   1.083       .  S
C436        C442   1.402       .  A
C436       C1557   1.411       .  A
C437       C1556   1.411       .  A
C437        C439   1.406       .  A
C437        C438   1.403       .  A
C438        H445   1.084       .  S
C439        C440   1.401       .  A
C439        H446   1.083       .  S
C440       C1561   1.402       .  A
C440        H447   1.083       .  S
C441       C1560   1.401       .  A
C441        C442   1.409   1_455  A
C442        H448   1.084       .  S
C449        C864   1.472       .  S
C449        C450   1.401       .  A
C449        C454   1.407       .  A
C450        C451   1.399       .  A
C450       H1019   1.083       .  S
C451        C452   1.406       .  A
C451        H460   1.084       .  S
C452       C1578   1.400       .  A
C452       C1573   1.411       .  A
C453       C1572   1.411       .  A
C453        C455   1.405       .  A
C453       C1574   1.399       .  A
C454       C1573   1.400       .  A
C454       H1581   1.085       .  S
C455        C456   1.398       .  A
C455        H462   1.084       .  S
C456        C457   1.402       .  A
C456        H463   1.083       .  S
C457        C458   1.409       .  A
C458       C1572   1.400       .  A
C458        H464   1.085       .  S
H459       C1010   1.083       .  S
H461       C1574   1.085       .  S
C465        C466   1.400       .  A
C465        C470   1.404       .  A
C466       C1027   1.400       .  A
C466        H475   1.083       .  S
C467       C1026   1.400       .  A
C467        C468   1.406       .  A
C467        H476   1.083       .  S
C468        C474   1.403       .  A
C468       C1029   1.413   1_565  A
C469       C1028   1.413       .  A
C469        C471   1.403       .  A
C469        C470   1.401       .  A
C470        H477   1.084       .  S
C471       C1032   1.398       .  A
C471        H478   1.083       .  S
C472       C1031   1.398       .  A
C472        C473   1.403       .  A
C472        H479   1.083       .  S
C473        C474   1.409   1_545  A
C474        H480   1.084       .  S
C481        C482   1.400       .  A
C481        C486   1.404       .  A
C482        C483   1.399       .  A
C482        H491   1.083       .  S
C483        C484   1.406       .  A
C483        H492   1.084       .  S
C484        C490   1.400       .  A
C484       C1045   1.412   1_545  A
C485       C1044   1.412       .  A
C485        C487   1.403       .  A
C485       C1046   1.398       .  A
C486       C1045   1.398   1_545  A
C486       H1053   1.085   1_545  S
C487        C488   1.396       .  A
C487        H494   1.084       .  S
C488        C489   1.403       .  A
C488        H495   1.083       .  S
C489       C1050   1.408       .  A
C490       C1049   1.408   1_545  A
C490        H496   1.085       .  S
H493       C1046   1.085       .  S
C497        C498   1.400       .  A
C497        C502   1.404       .  A
C498        C499   1.402       .  A
C498        H507   1.083       .  S
C499        C500   1.408       .  A
C499        H508   1.083       .  S
C500        C506   1.402       .  A
C500        C501   1.411       .  A
C501        C503   1.402       .  A
C501        C502   1.396       .  A
C502        H509   1.085       .  S
C503        C504   1.395       .  A
C503        H510   1.084       .  S
C504        C505   1.402       .  A
C504        H511   1.083       .  S
C505        C506   1.410       .  A
C506        H512   1.084       .  S
C513        C857   1.474   1_545  S
C513        C514   1.401       .  A
C513        C518   1.408       .  A
C514        C515   1.400       .  A
C514        H523   1.083       .  S
C515        C516   1.406       .  A
C515        H524   1.083       .  S
C516        C522   1.402       .  A
C516        C517   1.411       .  A
C517        C519   1.405       .  A
C517        C518   1.402       .  A
C518        H525   1.084   1_545  S
C519        C520   1.399       .  A
C519        H526   1.083       .  S
C520        C521   1.403       .  A
C520        H527   1.083       .  S
C521        C522   1.409       .  A
C522        H528   1.084       .  S
C529        C530   1.401       .  A
C529        C534   1.409       .  A
C530        H539   1.083       .  S
C531        C532   1.405       .  A
C531        H540   1.083       .  S
C532        C538   1.399   1_554  A
C533        C535   1.406       .  A
C533        C534   1.399       .  A
C534        H541   1.084       .  S
C535        H542   1.083       .  S
C536        C537   1.399       .  A
C536        H543   1.083       .  S
C537       C1482   1.466       .  S
C537        C538   1.406       .  A
C538        H544   1.085       .  S
C545        C546   1.402       .  A
C545        C550   1.411       .  A
C546        C547   1.400       .  A
C546        H555   1.083       .  S
C547        C548   1.405       .  A
C547        H556   1.084       .  S
C549        C551   1.408       .  A
C550        H557   1.084       .  S
C551        C552   1.402       .  A
C551        H558   1.084       .  S
C552        C553   1.400       .  A
C552        H559   1.083       .  S
C553        C554   1.407       .  A
O561        C576   1.270       .  A
O561       Al569   1.952       .  S
C562        O572   1.272       .  A
C562        O563   1.256       .  A
C562        C833   1.471       .  S
O563       Al565   1.861       .  S
O564        C566   1.269       .  A
O564       Al565   1.940       .  S
Al565       O573   1.943       .  S
Al565       O575   1.871       .  S
Al565       O574   1.778       .  S
C566        O579   1.259       .  A
C566       C1049   1.473   1_554  S
O567        C577   1.267       .  A
O567       Al569   1.943       .  S
O568        C581   1.270       .  A
O568       Al578   1.942       .  S
Al569       O582   1.874       .  S
Al569       O579   1.877       .  S
Al569       O574   1.780       .  S
O570        C577   1.255       .  A
O570       Al578   1.870       .  S
O571        C580   1.253       .  A
O571       Al578   1.865       .  S
O572       Al578   1.959       .  S
O573        C580   1.265       .  A
O574       Al578   1.772       .  S
O575        C576   1.258       .  A
C576        C809   1.473       .  S
C580        C777   1.467       .  S
C581        O582   1.258       .  A
C581        C745   1.468       .  S
O583        C598   1.266       .  A
O583       Al591   1.944       .  S
C584        O594   1.266       .  A
C584        O585   1.255       .  A
O585       Al587   1.869       .  S
O586        C588   1.270       .  A
O586       Al587   1.947       .  S
Al587       O595   1.940       .  S
Al587       O597   1.874       .  S
Al587       O596   1.773       .  S
C588        O601   1.257       .  A
C588       C1817   1.466       .  S
O589        C599   1.270       .  A
O589       Al591   1.945       .  S
O590        C603   1.268       .  A
O590       Al600   1.944       .  S
Al591       O604   1.869       .  S
Al591       O601   1.858       .  S
Al591       O596   1.774       .  S
O592        C599   1.260       .  A
O592       Al600   1.881       .  S
O593        C602   1.257       .  A
O593       Al600   1.865       .  S
O594       Al600   1.938       .  S
O595        C602   1.269       .  A
O596       Al600   1.781       .  S
O597        C598   1.255       .  A
C598        C713   1.478       .  S
C599        C753   1.478       .  S
C602        C761   1.464       .  S
C603        O604   1.258       .  A
C603        C681   1.466       .  S
O605        C620   1.267       .  A
O605       Al613   1.934       .  S
C606        O616   1.267       .  A
C606        O607   1.256       .  A
C606        C801   1.477       .  S
O607       Al609   1.877       .  S
O608        C610   1.269       .  A
O608       Al609   1.938       .  S
Al609       O617   1.940       .  S
Al609       O619   1.874       .  S
Al609       O618   1.775       .  S
C610        O623   1.258       .  A
C610        C649   1.470       .  S
O611        C621   1.268       .  A
O611       Al613   1.946       .  S
O612        C625   1.269       .  A
O612       Al622   1.948       .  S
Al613       O626   1.875       .  S
Al613       O623   1.871       .  S
Al613       O618   1.779       .  S
O614        C621   1.257       .  A
O614       Al622   1.868       .  S
O615        C624   1.256       .  A
O615       Al622   1.859       .  S
O616       Al622   1.941       .  S
O617        C624   1.268       .  A
O618       Al622   1.775       .  S
O619        C620   1.256       .  A
C620        C785   1.475       .  S
C621        C705   1.467       .  S
C624        C689   1.462       .  S
C625        O626   1.258       .  A
C625        C665   1.472       .  S
O627        C642   1.269       .  A
O627       Al635   1.946       .  S
C628        O638   1.271       .  A
C628        O629   1.258       .  A
C628        C825   1.478       .  S
O629       Al631   1.875       .  S
O630        C632   1.267       .  A
O630       Al631   1.940       .  S
Al631       O639   1.941       .  S
Al631       O641   1.864       .  S
Al631       O640   1.779       .  S
C632        O645   1.256       .  A
C632        C737   1.473       .  S
O633        C643   1.269       .  A
O633       Al635   1.936       .  S
O634        C647   1.269       .  A
O634       Al644   1.949       .  S
Al635       O648   1.872       .  S
Al635       O645   1.873       .  S
Al635       O640   1.775       .  S
O636        C643   1.260       .  A
O636       Al644   1.880       .  S
O637        C646   1.258       .  A
O637       Al644   1.874       .  S
O638       Al644   1.954       .  S
O639        C646   1.268       .  A
O640       Al644   1.780       .  S
O641        C642   1.256       .  A
C642       C1937   1.466   1_455  S
C643        C673   1.473       .  S
C646        C937   1.468       .  S
C647        O648   1.256       .  A
C647        C721   1.476       .  S
C649        C650   1.401       .  A
C649        C654   1.407       .  A
C650        C651   1.397       .  A
C650        H659   1.083       .  S
C651        C652   1.404       .  A
C651        H660   1.084       .  S
C652        C658   1.398       .  A
C652        C653   1.412       .  A
C653        C655   1.406       .  A
C653        C654   1.401       .  A
C654        H661   1.085       .  S
C655        C656   1.399       .  A
C655        H662   1.084       .  S
C656        C657   1.401       .  A
C656        H663   1.083       .  S
C657        C926   1.469   1_554  S
C657        C658   1.405       .  A
C658        H664   1.085       .  S
C665        C666   1.402       .  A
C665        C670   1.405       .  A
C666        C667   1.401       .  A
C666        H675   1.083       .  S
C667        C668   1.407       .  A
C667        H676   1.083       .  S
C668        C674   1.404       .  A
C668        C669   1.412       .  A
C669        C671   1.403       .  A
C669        C670   1.399       .  A
C670        H677   1.084       .  S
C671        C672   1.396       .  A
C671        H678   1.083       .  S
C672        C673   1.401       .  A
C672        H679   1.083       .  S
C673        C674   1.409       .  A
C674        H680   1.084       .  S
C681        C682   1.401       .  A
C681        C686   1.405       .  A
C682        C683   1.399       .  A
C682        H691   1.083       .  S
C683        C684   1.406       .  A
C683        H692   1.084       .  S
C684        C690   1.397       .  A
C684        C685   1.411       .  A
C685        C687   1.404       .  A
C685        C686   1.395       .  A
C686        H693   1.085       .  S
C687        C688   1.396       .  A
C687        H694   1.084       .  S
C688        C689   1.399       .  A
C688        H695   1.083       .  S
C689        C690   1.406       .  A
C690        H696   1.085       .  S
C697       C1708   1.466   1_455  S
C697        C698   1.399       .  A
C697        C702   1.408       .  A
C698        C699   1.396       .  A
C698       H1827   1.083       .  S
C699        C700   1.404       .  A
C699        H708   1.084       .  S
C700        C706   1.395       .  A
C700        C701   1.411       .  A
C701        C703   1.407       .  A
C701        C702   1.399       .  A
C702        H709   1.085   1_455  S
C703        C704   1.400       .  A
C703        H710   1.084       .  S
C704        C705   1.401       .  A
C704        H711   1.083       .  S
C705        C706   1.405       .  A
C706        H712   1.085       .  S
H707       C1818   1.083       .  S
C713       C1834   1.402       .  A
C713        C718   1.410       .  A
C714       C1833   1.402       .  A
C714        C715   1.400       .  A
C714        H723   1.083       .  S
C715        C716   1.405       .  A
C715        H724   1.083       .  S
C716        C722   1.402       .  A
C716       C1837   1.411       .  A
C717       C1836   1.411       .  A
C717        C719   1.406       .  A
C717        C718   1.403       .  A
C718        H725   1.084       .  S
C719        C720   1.401       .  A
C719        H726   1.083       .  S
C720       C1841   1.401       .  A
C720        H727   1.083       .  S
C721       C1840   1.402       .  A
C721        C722   1.409   1_455  A
C722        H728   1.084       .  S
C729        C730   1.401       .  A
C729        C734   1.407       .  A
C730        C731   1.399       .  A
C731        C732   1.406       .  A
C731        H740   1.084       .  S
C732       C1858   1.400       .  A
C732       C1853   1.411       .  A
C733       C1852   1.411       .  A
C733        C735   1.405       .  A
C733       C1854   1.400       .  A
C734       C1853   1.399       .  A
C734       H1861   1.085   1_565  S
C735        C736   1.398       .  A
C735        H742   1.084       .  S
C736        C737   1.401       .  A
C736        H743   1.083       .  S
C737        C738   1.408       .  A
C738       C1852   1.400       .  A
C738        H744   1.085       .  S
H741       C1854   1.085   1_545  S
C745        C746   1.400       .  A
C745        C750   1.404       .  A
C746        H755   1.083       .  S
C747        C748   1.406       .  A
C747        H756   1.083       .  S
C748        C754   1.403       .  A
C749        C751   1.403       .  A
C749        C750   1.401   1_545  A
C750        H757   1.084   1_565  S
C751        H758   1.083       .  S
C752        C753   1.403       .  A
C752        H759   1.083       .  S
C753        C754   1.409       .  A
C754        H760   1.084       .  S
C761        C762   1.400       .  A
C761        C766   1.403       .  A
C762        C763   1.399       .  A
C762        H771   1.083       .  S
C763        C764   1.406       .  A
C763        H772   1.084       .  S
C764        C770   1.400       .  A
C765        C767   1.403       .  A
C767        C768   1.396       .  A
C767        H774   1.084       .  S
C768        C769   1.403       .  A
C768        H775   1.083       .  S
C769        C846   1.473       .  S
C770        H776   1.085       .  S
C777        C778   1.400       .  A
C777        C782   1.404       .  A
C778        C779   1.402       .  A
C778        H787   1.083       .  S
C779        C780   1.408       .  A
C779        H788   1.083       .  S
C780        C786   1.402       .  A
C780        C781   1.411       .  A
C781        C783   1.402       .  A
C781        C782   1.396       .  A
C782        H789   1.085       .  S
C783        C784   1.395       .  A
C783        H790   1.084       .  S
C784        C785   1.402       .  A
C784        H791   1.083       .  S
C785        C786   1.410       .  A
C786        H792   1.084       .  S
C793        C794   1.401       .  A
C793        C798   1.408       .  A
C794        C795   1.400       .  A
C794        H803   1.083       .  S
C795        C796   1.406       .  A
C795        H804   1.083       .  S
C796        C802   1.402       .  A
C796        C797   1.411       .  A
C797        C799   1.405       .  A
C797        C798   1.402       .  A
C798        H805   1.084       .  S
C799        C800   1.399       .  A
C799        H806   1.083       .  S
C800        C801   1.403       .  A
C800        H807   1.083       .  S
C801        C802   1.409       .  A
C802        H808   1.084       .  S
C809        C810   1.401       .  A
C809        C814   1.409       .  A
C810       C1091   1.399       .  A
C810        H819   1.083       .  S
C811       C1090   1.399       .  A
C811        C812   1.405       .  A
C811        H820   1.083       .  S
C812        C818   1.399       .  A
C812       C1093   1.411       .  A
C813       C1092   1.411   1_556  A
C813        C815   1.406       .  A
C813        C814   1.399   1_556  A
C814        H821   1.084       .  S
C815       C1096   1.399       .  A
C815        H822   1.083       .  S
C816       C1095   1.399       .  A
C816        C817   1.399       .  A
C816        H823   1.083       .  S
C817       C1762   1.466       .  S
C817        C818   1.406       .  A
C818        H824   1.085       .  S
C825        C826   1.402       .  A
C825        C830   1.411       .  A
C826        C827   1.400       .  A
C826        H835   1.083       .  S
C827        C828   1.405       .  A
C827        H836   1.084       .  S
C828       C1114   1.401       .  A
C828       C1109   1.411       .  A
C829       C1108   1.411   1_554  A
C829        C831   1.408       .  A
C829       C1110   1.403   1_554  A
C830       C1109   1.403       .  A
C830        H837   1.084       .  S
C831        C832   1.402       .  A
C831        H838   1.084       .  S
C832        C833   1.400       .  A
C832        H839   1.083       .  S
C833        C834   1.407       .  A
C834       C1108   1.401   1_554  A
C834       H1120   1.085       .  S
H840       C1114   1.085       .  S
O841        C856   1.270       .  A
O841       Al849   1.952       .  S
C842        O852   1.272       .  A
C842        O843   1.256       .  A
C842       C1113   1.471       .  S
O843       Al845   1.861       .  S
O844        C846   1.269       .  A
O844       Al845   1.940       .  S
Al845       O853   1.943       .  S
Al845       O855   1.871       .  S
Al845       O854   1.778       .  S
C846        O859   1.259       .  A
O847        C857   1.267       .  A
O847       Al849   1.943       .  S
O848        C861   1.270       .  A
O848       Al858   1.943       .  S
Al849       O862   1.874       .  S
Al849       O859   1.877       .  S
Al849       O854   1.780       .  S
O850        C857   1.255       .  A
O850       Al858   1.870       .  S
O851        C860   1.253       .  A
O851       Al858   1.865       .  S
O852       Al858   1.959       .  S
O853        C860   1.265       .  A
O854       Al858   1.772       .  S
O855        C856   1.258       .  A
C856       C1089   1.473       .  S
C860       C1057   1.467       .  S
C861        O862   1.258       .  A
C861       C1025   1.468       .  S
O863        C878   1.266       .  A
O863       Al871   1.944       .  S
C864        O874   1.266       .  A
C864        O865   1.255       .  A
O865       Al867   1.869       .  S
O866        C868   1.271       .  A
O866       Al867   1.947       .  S
Al867       O875   1.940       .  S
Al867       O877   1.874       .  S
Al867       O876   1.773       .  S
C868        O881   1.257       .  A
C868       C2097   1.467       .  S
O869        C879   1.270       .  A
O869       Al871   1.945       .  S
O870        C883   1.268       .  A
O870       Al880   1.945       .  S
Al871       O884   1.869       .  S
Al871       O881   1.859       .  S
Al871       O876   1.774       .  S
O872        C879   1.259       .  A
O872       Al880   1.881       .  S
O873        C882   1.257       .  A
O873       Al880   1.866       .  S
O874       Al880   1.938       .  S
O875        C882   1.269       .  A
O876       Al880   1.781       .  S
O877        C878   1.255       .  A
C878        C993   1.478       .  S
C879       C1033   1.478       .  S
C882       C1041   1.464       .  S
C883        O884   1.258       .  A
C883        C961   1.466       .  S
O885        C900   1.267       .  A
O885       Al893   1.934       .  S
C886        O896   1.267       .  A
C886        O887   1.257       .  A
C886       C1081   1.477       .  S
O887       Al889   1.878       .  S
O888        C890   1.269       .  A
O888       Al889   1.938       .  S
Al889       O897   1.940       .  S
Al889       O899   1.874       .  S
Al889       O898   1.775       .  S
C890        O903   1.258       .  A
C890        C929   1.471       .  S
O891        C901   1.268       .  A
O891       Al893   1.946       .  S
O892        C905   1.269       .  A
O892       Al902   1.948       .  S
Al893       O906   1.875       .  S
Al893       O903   1.872       .  S
Al893       O898   1.779       .  S
O894        C901   1.257       .  A
O894       Al902   1.868       .  S
O895        C904   1.256       .  A
O895       Al902   1.859       .  S
O896       Al902   1.941       .  S
O897        C904   1.268       .  A
O898       Al902   1.775       .  S
O899        C900   1.256       .  A
C900       C1065   1.474       .  S
C901        C985   1.467       .  S
C904        C969   1.462       .  S
C905        O906   1.258       .  A
C905        C945   1.472       .  S
O907        C922   1.269       .  A
O907       Al915   1.947       .  S
C908        O918   1.271       .  A
C908        O909   1.258       .  A
C908       C1105   1.478       .  S
O909       Al911   1.875       .  S
O910        C912   1.266       .  A
O910       Al911   1.939       .  S
Al911       O919   1.941       .  S
Al911       O921   1.864       .  S
Al911       O920   1.779       .  S
C912        O925   1.256       .  A
C912       C1017   1.473       .  S
O913        C923   1.269       .  A
O913       Al915   1.937       .  S
O914        C927   1.268       .  A
O914       Al924   1.948       .  S
Al915       O928   1.871       .  S
Al915       O925   1.873       .  S
Al915       O920   1.775       .  S
O916        C923   1.260       .  A
O916       Al924   1.879       .  S
O917        C926   1.258       .  A
O917       Al924   1.875       .  S
O918       Al924   1.954       .  S
O919        C926   1.267       .  A
O920       Al924   1.780       .  S
O921        C922   1.256       .  A
C922       C2217   1.466   1_455  S
C923        C953   1.473       .  S
C927        O928   1.256       .  A
C927       C1001   1.476       .  S
C929        C930   1.401       .  A
C929        C934   1.408       .  A
C930        C931   1.396       .  A
C930        H939   1.083       .  S
C931        C932   1.403       .  A
C931        H940   1.084       .  S
C932        C938   1.398       .  A
C932        C933   1.412       .  A
C933        C935   1.406       .  A
C933        C934   1.401       .  A
C934        H941   1.085       .  S
C935        C936   1.400       .  A
C935        H942   1.084       .  S
C936        C937   1.401       .  A
C936        H943   1.083       .  S
C937        C938   1.405       .  A
C938        H944   1.085       .  S
C945        C946   1.402       .  A
C945        C950   1.406       .  A
C946        C947   1.401       .  A
C946        H955   1.083       .  S
C947        C948   1.406       .  A
C947        H956   1.083       .  S
C948        C954   1.404       .  A
C948        C949   1.412       .  A
C949        C951   1.403       .  A
C949        C950   1.399       .  A
C950        H957   1.084       .  S
C951        C952   1.397       .  A
C951        H958   1.083       .  S
C952        C953   1.401       .  A
C952        H959   1.083       .  S
C953        C954   1.409       .  A
C954        H960   1.084       .  S
C961        C962   1.401       .  A
C961        C966   1.405       .  A
C962        C963   1.399       .  A
C962        H971   1.083       .  S
C963        C964   1.406       .  A
C963        H972   1.084       .  S
C964        C970   1.397       .  A
C964        C965   1.411       .  A
C965        C967   1.404       .  A
C965        C966   1.395       .  A
C966        H973   1.085       .  S
C967        C968   1.396       .  A
C967        H974   1.084       .  S
C968        C969   1.399       .  A
C968        H975   1.083       .  S
C969        C970   1.406       .  A
C970        H976   1.085       .  S
C977       C1988   1.466   1_455  S
C977        C978   1.399       .  A
C977        C982   1.408       .  A
C978        C979   1.396       .  A
C978       H2107   1.083       .  S
C979        C980   1.405       .  A
C979        H988   1.084       .  S
C980        C986   1.395       .  A
C980        C981   1.411       .  A
C981        C983   1.407       .  A
C981        C982   1.399       .  A
C982        H989   1.085   1_455  S
C983        C984   1.400       .  A
C983        H990   1.084       .  S
C984        C985   1.401       .  A
C984        H991   1.083       .  S
C985        C986   1.406       .  A
C986        H992   1.085       .  S
H987       C2098   1.083       .  S
C993       C2114   1.402       .  A
C993        C998   1.410       .  A
C994       C2113   1.402       .  A
C994        C995   1.400       .  A
C994       H1003   1.083       .  S
C995        C996   1.405       .  A
C995       H1004   1.083       .  S
C996       C1002   1.402       .  A
C996       C2117   1.411       .  A
C997       C2116   1.411       .  A
C997        C999   1.406       .  A
C997        C998   1.403       .  A
C998       H1005   1.084       .  S
C999       C1000   1.401       .  A
C999       H1006   1.083       .  S
C1000      C2121   1.401       .  A
C1000      H1007   1.083       .  S
C1001      C2120   1.401       .  A
C1001      C1002   1.409   1_455  A
C1002      H1008   1.084       .  S
C1009      C1010   1.401       .  A
C1009      C1014   1.407       .  A
C1010      C1011   1.399       .  A
C1011      C1012   1.406       .  A
C1011      H1020   1.084       .  S
C1012      C2138   1.400       .  A
C1012      C2133   1.411       .  A
C1013      C2132   1.411       .  A
C1013      C1015   1.405       .  A
C1013      C2134   1.399       .  A
C1014      C2133   1.400       .  A
C1014      H2141   1.085   1_565  S
C1015      C1016   1.398       .  A
C1015      H1022   1.084       .  S
C1016      C1017   1.401       .  A
C1016      H1023   1.083       .  S
C1017      C1018   1.409       .  A
C1018      C2132   1.400       .  A
C1018      H1024   1.085       .  S
H1021      C2134   1.085   1_545  S
C1025      C1026   1.400       .  A
C1025      C1030   1.404       .  A
C1026      H1035   1.083       .  S
C1027      C1028   1.406       .  A
C1027      H1036   1.083       .  S
C1028      C1034   1.403       .  A
C1029      C1031   1.403       .  A
C1029      C1030   1.401   1_545  A
C1030      H1037   1.084   1_565  S
C1031      H1038   1.083       .  S
C1032      C1033   1.403       .  A
C1032      H1039   1.083       .  S
C1033      C1034   1.409       .  A
C1034      H1040   1.084       .  S
C1041      C1042   1.400       .  A
C1041      C1046   1.403       .  A
C1042      C1043   1.399       .  A
C1042      H1051   1.083       .  S
C1043      C1044   1.406       .  A
C1043      H1052   1.084       .  S
C1044      C1050   1.400       .  A
C1045      C1047   1.403       .  A
C1047      C1048   1.396       .  A
C1047      H1054   1.084       .  S
C1048      C1049   1.403       .  A
C1048      H1055   1.083       .  S
C1050      H1056   1.085       .  S
C1057      C1058   1.400       .  A
C1057      C1062   1.404       .  A
C1058      C1059   1.402       .  A
C1058      H1067   1.083       .  S
C1059      C1060   1.408       .  A
C1059      H1068   1.083       .  S
C1060      C1066   1.402       .  A
C1060      C1061   1.411       .  A
C1061      C1063   1.402       .  A
C1061      C1062   1.396       .  A
C1062      H1069   1.085       .  S
C1063      C1064   1.395       .  A
C1063      H1070   1.084       .  S
C1064      C1065   1.402       .  A
C1064      H1071   1.083       .  S
C1065      C1066   1.410       .  A
C1066      H1072   1.084       .  S
C1073      C1074   1.401       .  A
C1073      C1078   1.408       .  A
C1074      C1075   1.400       .  A
C1074      H1083   1.083       .  S
C1075      C1076   1.406       .  A
C1075      H1084   1.083       .  S
C1076      C1082   1.402       .  A
C1076      C1077   1.411       .  A
C1077      C1079   1.405       .  A
C1077      C1078   1.402       .  A
C1078      H1085   1.084       .  S
C1079      C1080   1.399       .  A
C1079      H1086   1.083       .  S
C1080      C1081   1.403       .  A
C1080      H1087   1.083       .  S
C1081      C1082   1.409       .  A
C1082      H1088   1.084       .  S
C1089      C1090   1.401       .  A
C1089      C1094   1.409       .  A
C1090      H1099   1.083       .  S
C1091      C1092   1.405       .  A
C1091      H1100   1.083       .  S
C1092      C1098   1.399   1_554  A
C1093      C1095   1.406       .  A
C1093      C1094   1.399       .  A
C1094      H1101   1.084       .  S
C1095      H1102   1.083       .  S
C1096      C1097   1.399       .  A
C1096      H1103   1.083       .  S
C1097      C2042   1.466       .  S
C1097      C1098   1.406       .  A
C1098      H1104   1.085       .  S
C1105      C1106   1.402       .  A
C1105      C1110   1.411       .  A
C1106      C1107   1.399       .  A
C1106      H1115   1.083       .  S
C1107      C1108   1.405       .  A
C1107      H1116   1.084       .  S
C1109      C1111   1.408       .  A
C1110      H1117   1.084       .  S
C1111      C1112   1.402       .  A
C1111      H1118   1.084       .  S
C1112      C1113   1.400       .  A
C1112      H1119   1.083       .  S
C1113      C1114   1.407       .  A
O1121      C1136   1.270       .  A
O1121     Al1129   1.952       .  S
C1122      O1132   1.272       .  A
C1122      O1123   1.256       .  A
C1122      C1393   1.471       .  S
O1123     Al1125   1.861       .  S
O1124      C1126   1.269       .  A
O1124     Al1125   1.940       .  S
Al1125     O1133   1.943       .  S
Al1125     O1135   1.871       .  S
Al1125     O1134   1.778       .  S
C1126      O1139   1.259       .  A
C1126      C1609   1.473   1_554  S
O1127      C1137   1.267       .  A
O1127     Al1129   1.943       .  S
O1128      C1141   1.270       .  A
O1128     Al1138   1.943       .  S
Al1129     O1142   1.874       .  S
Al1129     O1139   1.877       .  S
Al1129     O1134   1.780       .  S
O1130      C1137   1.255       .  A
O1130     Al1138   1.870       .  S
O1131      C1140   1.253       .  A
O1131     Al1138   1.865       .  S
O1132     Al1138   1.959       .  S
O1133      C1140   1.265       .  A
O1134     Al1138   1.772       .  S
O1135      C1136   1.258       .  A
C1136      C1369   1.473       .  S
C1137      C1913   1.474       .  S
C1140      C1337   1.467       .  S
C1141      O1142   1.258       .  A
C1141      C1305   1.468       .  S
O1143      C1158   1.266       .  A
O1143     Al1151   1.945       .  S
C1144      O1154   1.266       .  A
C1144      O1145   1.255       .  A
C1144      C1849   1.472   1_545  S
O1145     Al1147   1.869       .  S
O1146      C1148   1.271       .  A
O1146     Al1147   1.947       .  S
Al1147     O1155   1.941       .  S
Al1147     O1157   1.874       .  S
Al1147     O1156   1.773       .  S
C1148      O1161   1.257       .  A
O1149      C1159   1.270       .  A
O1149     Al1151   1.946       .  S
O1150      C1163   1.268       .  A
O1150     Al1160   1.944       .  S
Al1151     O1164   1.869       .  S
Al1151     O1161   1.859       .  S
Al1151     O1156   1.774       .  S
O1152      C1159   1.259       .  A
O1152     Al1160   1.881       .  S
O1153      C1162   1.257       .  A
O1153     Al1160   1.866       .  S
O1154     Al1160   1.938       .  S
O1155      C1162   1.269       .  A
O1156     Al1160   1.781       .  S
O1157      C1158   1.255       .  A
C1158      C1273   1.478       .  S
C1159      C1313   1.478       .  S
C1162      C1321   1.465       .  S
C1163      O1164   1.258       .  A
C1163      C1241   1.466       .  S
O1165      C1180   1.267       .  A
O1165     Al1173   1.934       .  S
C1166      O1176   1.267       .  A
C1166      O1167   1.257       .  A
C1166      C1361   1.477       .  S
O1167     Al1169   1.878       .  S
O1168      C1170   1.269       .  A
O1168     Al1169   1.938       .  S
Al1169     O1177   1.940       .  S
Al1169     O1179   1.874       .  S
Al1169     O1178   1.775       .  S
C1170      O1183   1.258       .  A
C1170      C1209   1.471       .  S
O1171      C1181   1.268       .  A
O1171     Al1173   1.946       .  S
O1172      C1185   1.269       .  A
O1172     Al1182   1.948       .  S
Al1173     O1186   1.875       .  S
Al1173     O1183   1.872       .  S
Al1173     O1178   1.779       .  S
O1174      C1181   1.257       .  A
O1174     Al1182   1.868       .  S
O1175      C1184   1.256       .  A
O1175     Al1182   1.859       .  S
O1176     Al1182   1.941       .  S
O1177      C1184   1.268       .  A
O1178     Al1182   1.775       .  S
O1179      C1180   1.256       .  A
C1180      C1345   1.474       .  S
C1181      C1265   1.467       .  S
C1184      C1249   1.462       .  S
C1185      O1186   1.258       .  A
C1185      C1225   1.473       .  S
O1187      C1202   1.269       .  A
O1187     Al1195   1.947       .  S
C1188      O1198   1.271       .  A
C1188      O1189   1.259       .  A
C1188      C1385   1.479       .  S
O1189     Al1191   1.876       .  S
O1190      C1192   1.266       .  A
O1190     Al1191   1.939       .  S
Al1191     O1199   1.941       .  S
Al1191     O1201   1.864       .  S
Al1191     O1200   1.779       .  S
C1192      O1205   1.256       .  A
C1192      C1297   1.473       .  S
O1193      C1203   1.269       .  A
O1193     Al1195   1.937       .  S
O1194      C1207   1.268       .  A
O1194     Al1204   1.948       .  S
Al1195     O1208   1.871       .  S
Al1195     O1205   1.873       .  S
Al1195     O1200   1.775       .  S
O1196      C1203   1.260       .  A
O1196     Al1204   1.880       .  S
O1197      C1206   1.258       .  A
O1197     Al1204   1.875       .  S
O1198     Al1204   1.954       .  S
O1199      C1206   1.267       .  A
O1200     Al1204   1.780       .  S
O1201      C1202   1.256       .  A
C1203      C1233   1.473       .  S
C1206      C1497   1.469       .  S
C1207      O1208   1.256       .  A
C1207      C1281   1.476       .  S
C1209      C1210   1.401       .  A
C1209      C1214   1.408       .  A
C1210      C1211   1.397       .  A
C1210      H1219   1.083       .  S
C1211      C1212   1.403       .  A
C1211      H1220   1.084       .  S
C1212      C1218   1.398       .  A
C1212      C1213   1.412       .  A
C1213      C1215   1.406       .  A
C1213      C1214   1.401       .  A
C1214      H1221   1.085       .  S
C1215      C1216   1.400       .  A
C1215      H1222   1.084       .  S
C1216      C1217   1.401       .  A
C1216      H1223   1.083       .  S
C1217      C1486   1.469   1_554  S
C1217      C1218   1.405       .  A
C1218      H1224   1.085       .  S
C1225      C1226   1.402       .  A
C1225      C1230   1.406       .  A
C1226      C1227   1.401       .  A
C1226      H1235   1.083       .  S
C1227      C1228   1.406       .  A
C1227      H1236   1.083       .  S
C1228      C1234   1.404       .  A
C1228      C1229   1.412       .  A
C1229      C1231   1.403       .  A
C1229      C1230   1.400       .  A
C1230      H1237   1.084       .  S
C1231      C1232   1.397       .  A
C1231      H1238   1.083       .  S
C1232      C1233   1.401       .  A
C1232      H1239   1.083       .  S
C1233      C1234   1.409       .  A
C1234      H1240   1.084       .  S
C1241      C1242   1.401       .  A
C1241      C1246   1.405       .  A
C1242      C1243   1.399       .  A
C1242      H1251   1.083       .  S
C1243      C1244   1.406       .  A
C1243      H1252   1.084       .  S
C1244      C1250   1.397       .  A
C1244      C1245   1.411       .  A
C1245      C1247   1.404       .  A
C1245      C1246   1.395       .  A
C1246      H1253   1.085       .  S
C1247      C1248   1.396       .  A
C1247      H1254   1.084       .  S
C1248      C1249   1.399       .  A
C1248      H1255   1.083       .  S
C1249      C1250   1.406       .  A
C1250      H1256   1.085       .  S
C1257      C1258   1.399       .  A
C1257      C1262   1.408       .  A
C1258      C1259   1.397       .  A
C1259      C1260   1.405       .  A
C1259      H1268   1.084       .  S
C1260      C1266   1.395       .  A
C1260      C1261   1.411       .  A
C1261      C1263   1.407       .  A
C1261      C1262   1.399       .  A
C1262      H1269   1.085       .  S
C1263      C1264   1.400       .  A
C1263      H1270   1.084       .  S
C1264      C1265   1.401       .  A
C1264      H1271   1.083       .  S
C1265      C1266   1.406       .  A
C1266      H1272   1.085       .  S
C1273      C1278   1.410       .  A
C1274      C1275   1.400       .  A
C1274      H1283   1.083       .  S
C1275      C1276   1.405       .  A
C1275      H1284   1.083       .  S
C1276      C1282   1.402       .  A
C1277      C1279   1.406   1_655  A
C1277      C1278   1.402       .  A
C1278      H1285   1.084       .  S
C1279      C1280   1.401       .  A
C1279      H1286   1.083       .  S
C1280      H1287   1.083       .  S
C1281      C1282   1.409       .  A
C1282      H1288   1.084       .  S
C1289      C1704   1.472       .  S
C1289      C1290   1.401       .  A
C1289      C1294   1.407   1_655  A
C1290      C1291   1.399       .  A
C1290      H1859   1.083       .  S
C1291      C1292   1.406   1_655  A
C1291      H1300   1.084       .  S
C1293      C1295   1.405       .  A
C1295      C1296   1.398       .  A
C1295      H1302   1.084       .  S
C1296      C1297   1.402       .  A
C1296      H1303   1.083       .  S
C1297      C1298   1.409       .  A
C1298      H1304   1.085       .  S
H1299      C1850   1.083       .  S
C1305      C1306   1.400       .  A
C1305      C1310   1.404       .  A
C1306      C1867   1.400       .  A
C1306      H1315   1.083       .  S
C1307      C1866   1.400       .  A
C1307      C1308   1.406       .  A
C1307      H1316   1.083       .  S
C1308      C1314   1.403       .  A
C1308      C1869   1.412   1_565  A
C1309      C1868   1.413       .  A
C1309      C1311   1.403       .  A
C1309      C1310   1.401       .  A
C1310      H1317   1.084       .  S
C1311      C1872   1.398       .  A
C1311      H1318   1.083       .  S
C1312      C1871   1.398       .  A
C1312      C1313   1.403       .  A
C1312      H1319   1.083       .  S
C1313      C1314   1.409   1_545  A
C1314      H1320   1.084       .  S
C1321      C1322   1.400       .  A
C1321      C1326   1.404       .  A
C1322      C1323   1.399       .  A
C1322      H1331   1.083       .  S
C1323      C1324   1.406       .  A
C1323      H1332   1.084       .  S
C1324      C1330   1.400       .  A
C1324      C1885   1.412   1_545  A
C1325      C1884   1.412       .  A
C1325      C1327   1.403       .  A
C1325      C1886   1.398       .  A
C1326      C1885   1.398   1_545  A
C1326      H1893   1.085   1_545  S
C1327      C1328   1.396       .  A
C1327      H1334   1.084       .  S
C1328      C1329   1.403       .  A
C1328      H1335   1.083       .  S
C1329      C1406   1.473       .  S
C1329      C1890   1.408       .  A
C1330      C1889   1.408   1_545  A
C1330      H1336   1.085       .  S
H1333      C1886   1.085       .  S
C1337      C1338   1.400       .  A
C1337      C1342   1.404       .  A
C1338      C1339   1.402       .  A
C1338      H1347   1.083       .  S
C1339      C1340   1.408       .  A
C1339      H1348   1.083       .  S
C1340      C1346   1.402       .  A
C1340      C1341   1.411       .  A
C1341      C1343   1.402       .  A
C1341      C1342   1.395       .  A
C1342      H1349   1.085       .  S
C1343      C1344   1.395       .  A
C1343      H1350   1.084       .  S
C1344      C1345   1.402       .  A
C1344      H1351   1.083       .  S
C1345      C1346   1.410       .  A
C1346      H1352   1.084       .  S
C1353      C1697   1.474   1_545  S
C1353      C1354   1.401       .  A
C1353      C1358   1.408       .  A
C1354      C1355   1.400       .  A
C1354      H1363   1.083       .  S
C1355      C1356   1.406       .  A
C1355      H1364   1.083       .  S
C1356      C1362   1.402       .  A
C1356      C1357   1.411       .  A
C1357      C1359   1.405       .  A
C1357      C1358   1.402       .  A
C1358      H1365   1.084   1_545  S
C1359      C1360   1.399       .  A
C1359      H1366   1.083       .  S
C1360      C1361   1.403       .  A
C1360      H1367   1.083       .  S
C1361      C1362   1.409       .  A
C1362      H1368   1.084       .  S
C1369      C1370   1.401       .  A
C1369      C1374   1.409       .  A
C1370      C1651   1.399       .  A
C1370      H1379   1.083       .  S
C1371      C1650   1.399       .  A
C1371      C1372   1.405       .  A
C1371      H1380   1.083       .  S
C1372      C1378   1.399       .  A
C1372      C1653   1.411       .  A
C1373      C1652   1.411   1_556  A
C1373      C1375   1.406       .  A
C1373      C1374   1.399   1_556  A
C1374      H1381   1.084       .  S
C1375      C1656   1.399       .  A
C1375      H1382   1.083       .  S
C1376      C1655   1.399       .  A
C1376      C1377   1.399       .  A
C1376      H1383   1.083       .  S
C1377      C1378   1.406       .  A
C1378      H1384   1.085   1_655  S
C1385      C1386   1.402       .  A
C1385      C1390   1.411       .  A
C1386      C1387   1.400       .  A
C1386      H1395   1.083       .  S
C1387      C1388   1.405       .  A
C1387      H1396   1.084       .  S
C1388      C1674   1.401       .  A
C1388      C1669   1.411       .  A
C1389      C1668   1.411   1_554  A
C1389      C1391   1.408       .  A
C1389      C1670   1.403   1_554  A
C1390      C1669   1.403       .  A
C1390      H1397   1.084       .  S
C1391      C1392   1.402       .  A
C1391      H1398   1.084       .  S
C1392      C1393   1.400       .  A
C1392      H1399   1.083       .  S
C1393      C1394   1.407       .  A
C1394      C1668   1.401   1_554  A
C1394      H1680   1.085       .  S
H1400      C1674   1.085       .  S
O1401      C1416   1.270       .  A
O1401     Al1409   1.952       .  S
C1402      O1412   1.272       .  A
C1402      O1403   1.256       .  A
C1402      C1673   1.471       .  S
O1403     Al1405   1.861       .  S
O1404      C1406   1.269       .  A
O1404     Al1405   1.940       .  S
Al1405     O1413   1.943       .  S
Al1405     O1415   1.871       .  S
Al1405     O1414   1.778       .  S
C1406      O1419   1.259       .  A
O1407      C1417   1.267       .  A
O1407     Al1409   1.943       .  S
O1408      C1421   1.270       .  A
O1408     Al1418   1.942       .  S
Al1409     O1422   1.874       .  S
Al1409     O1419   1.877       .  S
Al1409     O1414   1.780       .  S
O1410      C1417   1.255       .  A
O1410     Al1418   1.871       .  S
O1411      C1420   1.253       .  A
O1411     Al1418   1.865       .  S
O1412     Al1418   1.959       .  S
O1413      C1420   1.265       .  A
O1414     Al1418   1.772       .  S
O1415      C1416   1.258       .  A
C1416      C1649   1.473       .  S
C1417      C2193   1.474       .  S
C1420      C1617   1.467       .  S
C1421      O1422   1.258       .  A
C1421      C1585   1.468       .  S
O1423      C1438   1.266       .  A
O1423     Al1431   1.944       .  S
C1424      O1434   1.266       .  A
C1424      O1425   1.255       .  A
C1424      C2129   1.472   1_545  S
O1425     Al1427   1.869       .  S
O1426      C1428   1.271       .  A
O1426     Al1427   1.947       .  S
Al1427     O1435   1.941       .  S
Al1427     O1437   1.874       .  S
Al1427     O1436   1.773       .  S
C1428      O1441   1.257       .  A
O1429      C1439   1.270       .  A
O1429     Al1431   1.945       .  S
O1430      C1443   1.268       .  A
O1430     Al1440   1.944       .  S
Al1431     O1444   1.869       .  S
Al1431     O1441   1.859       .  S
Al1431     O1436   1.774       .  S
O1432      C1439   1.260       .  A
O1432     Al1440   1.882       .  S
O1433      C1442   1.257       .  A
O1433     Al1440   1.865       .  S
O1434     Al1440   1.938       .  S
O1435      C1442   1.269       .  A
O1436     Al1440   1.781       .  S
O1437      C1438   1.255       .  A
C1438      C1553   1.478       .  S
C1439      C1593   1.478       .  S
C1442      C1601   1.464       .  S
C1443      O1444   1.258       .  A
C1443      C1521   1.466       .  S
O1445      C1460   1.267       .  A
O1445     Al1453   1.934       .  S
C1446      O1456   1.267       .  A
C1446      O1447   1.257       .  A
C1446      C1641   1.477       .  S
O1447     Al1449   1.877       .  S
O1448      C1450   1.269       .  A
O1448     Al1449   1.938       .  S
Al1449     O1457   1.940       .  S
Al1449     O1459   1.874       .  S
Al1449     O1458   1.775       .  S
C1450      O1463   1.258       .  A
C1450      C1489   1.471       .  S
O1451      C1461   1.268       .  A
O1451     Al1453   1.946       .  S
O1452      C1465   1.269       .  A
O1452     Al1462   1.948       .  S
Al1453     O1466   1.876       .  S
Al1453     O1463   1.872       .  S
Al1453     O1458   1.779       .  S
O1454      C1461   1.257       .  A
O1454     Al1462   1.868       .  S
O1455      C1464   1.256       .  A
O1455     Al1462   1.859       .  S
O1456     Al1462   1.940       .  S
O1457      C1464   1.268       .  A
O1458     Al1462   1.775       .  S
O1459      C1460   1.256       .  A
C1460      C1625   1.475       .  S
C1461      C1545   1.466       .  S
C1464      C1529   1.462       .  S
C1465      O1466   1.258       .  A
C1465      C1505   1.472       .  S
O1467      C1482   1.269       .  A
O1467     Al1475   1.946       .  S
C1468      O1478   1.271       .  A
C1468      O1469   1.258       .  A
C1468      C1665   1.479       .  S
O1469     Al1471   1.875       .  S
O1470      C1472   1.267       .  A
O1470     Al1471   1.940       .  S
Al1471     O1479   1.941       .  S
Al1471     O1481   1.864       .  S
Al1471     O1480   1.779       .  S
C1472      O1485   1.256       .  A
C1472      C1577   1.473       .  S
O1473      C1483   1.269       .  A
O1473     Al1475   1.936       .  S
O1474      C1487   1.269       .  A
O1474     Al1484   1.949       .  S
Al1475     O1488   1.872       .  S
Al1475     O1485   1.873       .  S
Al1475     O1480   1.775       .  S
O1476      C1483   1.260       .  A
O1476     Al1484   1.880       .  S
O1477      C1486   1.258       .  A
O1477     Al1484   1.875       .  S
O1478     Al1484   1.955       .  S
O1479      C1486   1.268       .  A
O1480     Al1484   1.780       .  S
O1481      C1482   1.256       .  A
C1483      C1513   1.473       .  S
C1487      O1488   1.256       .  A
C1487      C1561   1.476       .  S
C1489      C1490   1.401       .  A
C1489      C1494   1.408       .  A
C1490      C1491   1.397       .  A
C1490      H1499   1.083       .  S
C1491      C1492   1.404       .  A
C1491      H1500   1.084       .  S
C1492      C1498   1.398       .  A
C1492      C1493   1.412       .  A
C1493      C1495   1.406       .  A
C1493      C1494   1.401       .  A
C1494      H1501   1.085       .  S
C1495      C1496   1.400       .  A
C1495      H1502   1.084       .  S
C1496      C1497   1.401       .  A
C1496      H1503   1.083       .  S
C1497      C1498   1.405       .  A
C1498      H1504   1.085       .  S
C1505      C1506   1.402       .  A
C1505      C1510   1.405       .  A
C1506      C1507   1.401       .  A
C1506      H1515   1.083       .  S
C1507      C1508   1.406       .  A
C1507      H1516   1.083       .  S
C1508      C1514   1.404       .  A
C1508      C1509   1.412       .  A
C1509      C1511   1.403       .  A
C1509      C1510   1.399       .  A
C1510      H1517   1.084       .  S
C1511      C1512   1.396       .  A
C1511      H1518   1.083       .  S
C1512      C1513   1.401       .  A
C1512      H1519   1.083       .  S
C1513      C1514   1.409       .  A
C1514      H1520   1.084       .  S
C1521      C1522   1.401       .  A
C1521      C1526   1.405       .  A
C1522      C1523   1.399       .  A
C1522      H1531   1.083       .  S
C1523      C1524   1.406       .  A
C1523      H1532   1.084       .  S
C1524      C1530   1.397       .  A
C1524      C1525   1.411       .  A
C1525      C1527   1.404       .  A
C1525      C1526   1.395       .  A
C1526      H1533   1.085       .  S
C1527      C1528   1.396       .  A
C1527      H1534   1.084       .  S
C1528      C1529   1.399       .  A
C1528      H1535   1.083       .  S
C1529      C1530   1.406       .  A
C1530      H1536   1.085       .  S
C1537      C1538   1.399       .  A
C1537      C1542   1.408       .  A
C1538      C1539   1.396       .  A
C1539      C1540   1.404       .  A
C1539      H1548   1.084       .  S
C1540      C1546   1.395       .  A
C1540      C1541   1.411       .  A
C1541      C1543   1.407       .  A
C1541      C1542   1.399       .  A
C1542      H1549   1.085       .  S
C1543      C1544   1.400       .  A
C1543      H1550   1.084       .  S
C1544      C1545   1.400       .  A
C1544      H1551   1.083       .  S
C1545      C1546   1.405       .  A
C1546      H1552   1.085       .  S
C1553      C1558   1.410       .  A
C1554      C1555   1.400       .  A
C1554      H1563   1.083       .  S
C1555      C1556   1.405       .  A
C1555      H1564   1.083       .  S
C1556      C1562   1.402       .  A
C1557      C1559   1.406   1_655  A
C1557      C1558   1.403       .  A
C1558      H1565   1.084       .  S
C1559      C1560   1.401       .  A
C1559      H1566   1.083       .  S
C1560      H1567   1.083       .  S
C1561      C1562   1.409       .  A
C1562      H1568   1.084       .  S
C1569      C1984   1.472       .  S
C1569      C1570   1.401       .  A
C1569      C1574   1.407   1_655  A
C1570      C1571   1.399       .  A
C1570      H2139   1.083       .  S
C1571      C1572   1.406   1_655  A
C1571      H1580   1.084       .  S
C1573      C1575   1.405       .  A
C1575      C1576   1.398       .  A
C1575      H1582   1.084       .  S
C1576      C1577   1.402       .  A
C1576      H1583   1.083       .  S
C1577      C1578   1.409       .  A
C1578      H1584   1.085       .  S
H1579      C2130   1.083       .  S
C1585      C1586   1.401       .  A
C1585      C1590   1.404       .  A
C1586      C2147   1.400       .  A
C1586      H1595   1.083       .  S
C1587      C2146   1.400       .  A
C1587      C1588   1.406       .  A
C1587      H1596   1.083       .  S
C1588      C1594   1.403       .  A
C1588      C2149   1.413   1_565  A
C1589      C2148   1.413       .  A
C1589      C1591   1.403       .  A
C1589      C1590   1.401       .  A
C1590      H1597   1.084       .  S
C1591      C2152   1.398       .  A
C1591      H1598   1.083       .  S
C1592      C2151   1.398       .  A
C1592      C1593   1.403       .  A
C1592      H1599   1.083       .  S
C1593      C1594   1.409   1_545  A
C1594      H1600   1.084       .  S
C1601      C1602   1.400       .  A
C1601      C1606   1.403       .  A
C1602      C1603   1.399       .  A
C1602      H1611   1.083       .  S
C1603      C1604   1.406       .  A
C1603      H1612   1.084       .  S
C1604      C1610   1.400       .  A
C1604      C2165   1.412   1_545  A
C1605      C2164   1.412       .  A
C1605      C1607   1.403       .  A
C1605      C2166   1.398       .  A
C1606      C2165   1.398   1_545  A
C1606      H2173   1.085   1_545  S
C1607      C1608   1.396       .  A
C1607      H1614   1.084       .  S
C1608      C1609   1.403       .  A
C1608      H1615   1.083       .  S
C1609      C2170   1.408       .  A
C1610      C2169   1.408   1_545  A
C1610      H1616   1.085       .  S
H1613      C2166   1.085       .  S
C1617      C1618   1.400       .  A
C1617      C1622   1.404       .  A
C1618      C1619   1.402       .  A
C1618      H1627   1.083       .  S
C1619      C1620   1.408       .  A
C1619      H1628   1.083       .  S
C1620      C1626   1.402       .  A
C1620      C1621   1.411       .  A
C1621      C1623   1.402       .  A
C1621      C1622   1.395       .  A
C1622      H1629   1.085       .  S
C1623      C1624   1.395       .  A
C1623      H1630   1.084       .  S
C1624      C1625   1.402       .  A
C1624      H1631   1.083       .  S
C1625      C1626   1.411       .  A
C1626      H1632   1.084       .  S
C1633      C1977   1.474   1_545  S
C1633      C1634   1.401       .  A
C1633      C1638   1.408       .  A
C1634      C1635   1.399       .  A
C1634      H1643   1.083       .  S
C1635      C1636   1.405       .  A
C1635      H1644   1.083       .  S
C1636      C1642   1.402       .  A
C1636      C1637   1.411       .  A
C1637      C1639   1.405       .  A
C1637      C1638   1.402       .  A
C1638      H1645   1.084   1_545  S
C1639      C1640   1.399       .  A
C1639      H1646   1.083       .  S
C1640      C1641   1.403       .  A
C1640      H1647   1.083       .  S
C1641      C1642   1.409       .  A
C1642      H1648   1.084       .  S
C1649      C1650   1.401       .  A
C1649      C1654   1.409       .  A
C1650      H1659   1.083       .  S
C1651      C1652   1.405       .  A
C1651      H1660   1.083       .  S
C1652      C1658   1.399   1_554  A
C1653      C1655   1.406       .  A
C1653      C1654   1.399       .  A
C1654      H1661   1.084       .  S
C1655      H1662   1.083       .  S
C1656      C1657   1.399       .  A
C1656      H1663   1.083       .  S
C1657      C1658   1.406       .  A
C1658      H1664   1.085   1_655  S
C1665      C1666   1.402       .  A
C1665      C1670   1.411       .  A
C1666      C1667   1.400       .  A
C1666      H1675   1.083       .  S
C1667      C1668   1.405       .  A
C1667      H1676   1.084       .  S
C1669      C1671   1.408       .  A
C1670      H1677   1.084       .  S
C1671      C1672   1.402       .  A
C1671      H1678   1.084       .  S
C1672      C1673   1.400       .  A
C1672      H1679   1.083       .  S
C1673      C1674   1.407       .  A
O1681      C1696   1.270       .  A
O1681     Al1689   1.952       .  S
C1682      O1692   1.272       .  A
C1682      O1683   1.256       .  A
C1682      C1953   1.471       .  S
O1683     Al1685   1.861       .  S
O1684      C1686   1.269       .  A
O1684     Al1685   1.940       .  S
Al1685     O1693   1.943       .  S
Al1685     O1695   1.871       .  S
Al1685     O1694   1.778       .  S
C1686      O1699   1.259       .  A
C1686      C2169   1.473   1_554  S
O1687      C1697   1.267       .  A
O1687     Al1689   1.942       .  S
O1688      C1701   1.270       .  A
O1688     Al1698   1.943       .  S
Al1689     O1702   1.874       .  S
Al1689     O1699   1.877       .  S
Al1689     O1694   1.780       .  S
O1690      C1697   1.255       .  A
O1690     Al1698   1.871       .  S
O1691      C1700   1.253       .  A
O1691     Al1698   1.865       .  S
O1692     Al1698   1.959       .  S
O1693      C1700   1.265       .  A
O1694     Al1698   1.772       .  S
O1695      C1696   1.258       .  A
C1696      C1929   1.473       .  S
C1700      C1897   1.467       .  S
C1701      O1702   1.258       .  A
C1701      C1865   1.468       .  S
O1703      C1718   1.266       .  A
O1703     Al1711   1.944       .  S
C1704      O1714   1.266       .  A
C1704      O1705   1.255       .  A
O1705     Al1707   1.869       .  S
O1706      C1708   1.271       .  A
O1706     Al1707   1.947       .  S
Al1707     O1715   1.941       .  S
Al1707     O1717   1.874       .  S
Al1707     O1716   1.773       .  S
C1708      O1721   1.257       .  A
O1709      C1719   1.270       .  A
O1709     Al1711   1.945       .  S
O1710      C1723   1.268       .  A
O1710     Al1720   1.944       .  S
Al1711     O1724   1.869       .  S
Al1711     O1721   1.858       .  S
Al1711     O1716   1.774       .  S
O1712      C1719   1.260       .  A
O1712     Al1720   1.881       .  S
O1713      C1722   1.257       .  A
O1713     Al1720   1.866       .  S
O1714     Al1720   1.938       .  S
O1715      C1722   1.269       .  A
O1716     Al1720   1.781       .  S
O1717      C1718   1.255       .  A
C1718      C1833   1.478       .  S
C1719      C1873   1.478       .  S
C1722      C1881   1.464       .  S
C1723      O1724   1.258       .  A
C1723      C1801   1.466       .  S
O1725      C1740   1.267       .  A
O1725     Al1733   1.934       .  S
C1726      O1736   1.267       .  A
C1726      O1727   1.257       .  A
C1726      C1921   1.477       .  S
O1727     Al1729   1.878       .  S
O1728      C1730   1.269       .  A
O1728     Al1729   1.938       .  S
Al1729     O1737   1.940       .  S
Al1729     O1739   1.874       .  S
Al1729     O1738   1.775       .  S
C1730      O1743   1.258       .  A
C1730      C1769   1.471       .  S
O1731      C1741   1.268       .  A
O1731     Al1733   1.946       .  S
O1732      C1745   1.269       .  A
O1732     Al1742   1.948       .  S
Al1733     O1746   1.876       .  S
Al1733     O1743   1.872       .  S
Al1733     O1738   1.779       .  S
O1734      C1741   1.257       .  A
O1734     Al1742   1.868       .  S
O1735      C1744   1.256       .  A
O1735     Al1742   1.859       .  S
O1736     Al1742   1.941       .  S
O1737      C1744   1.268       .  A
O1738     Al1742   1.775       .  S
O1739      C1740   1.256       .  A
C1740      C1905   1.475       .  S
C1741      C1825   1.467       .  S
C1744      C1809   1.463       .  S
C1745      O1746   1.258       .  A
C1745      C1785   1.473       .  S
O1747      C1762   1.269       .  A
O1747     Al1755   1.947       .  S
C1748      O1758   1.271       .  A
C1748      O1749   1.259       .  A
C1748      C1945   1.479       .  S
O1749     Al1751   1.876       .  S
O1750      C1752   1.267       .  A
O1750     Al1751   1.939       .  S
Al1751     O1759   1.941       .  S
Al1751     O1761   1.864       .  S
Al1751     O1760   1.779       .  S
C1752      O1765   1.256       .  A
C1752      C1857   1.473       .  S
O1753      C1763   1.269       .  A
O1753     Al1755   1.937       .  S
O1754      C1767   1.268       .  A
O1754     Al1764   1.948       .  S
Al1755     O1768   1.871       .  S
Al1755     O1765   1.873       .  S
Al1755     O1760   1.775       .  S
O1756      C1763   1.260       .  A
O1756     Al1764   1.880       .  S
O1757      C1766   1.258       .  A
O1757     Al1764   1.875       .  S
O1758     Al1764   1.955       .  S
O1759      C1766   1.267       .  A
O1760     Al1764   1.780       .  S
O1761      C1762   1.256       .  A
C1763      C1793   1.473       .  S
C1766      C2057   1.469       .  S
C1767      O1768   1.256       .  A
C1767      C1841   1.475       .  S
C1769      C1770   1.401       .  A
C1769      C1774   1.408       .  A
C1770      C1771   1.397       .  A
C1770      H1779   1.083       .  S
C1771      C1772   1.404       .  A
C1771      H1780   1.084       .  S
C1772      C1778   1.398       .  A
C1772      C1773   1.412       .  A
C1773      C1775   1.406       .  A
C1773      C1774   1.401       .  A
C1774      H1781   1.085       .  S
C1775      C1776   1.400       .  A
C1775      H1782   1.084       .  S
C1776      C1777   1.401       .  A
C1776      H1783   1.083       .  S
C1777      C2046   1.469   1_554  S
C1777      C1778   1.405       .  A
C1778      H1784   1.085       .  S
C1785      C1786   1.402       .  A
C1785      C1790   1.406       .  A
C1786      C1787   1.401       .  A
C1786      H1795   1.083       .  S
C1787      C1788   1.406       .  A
C1787      H1796   1.083       .  S
C1788      C1794   1.404       .  A
C1788      C1789   1.412       .  A
C1789      C1791   1.403       .  A
C1789      C1790   1.400       .  A
C1790      H1797   1.084       .  S
C1791      C1792   1.397       .  A
C1791      H1798   1.083       .  S
C1792      C1793   1.401       .  A
C1792      H1799   1.083       .  S
C1793      C1794   1.409       .  A
C1794      H1800   1.084       .  S
C1801      C1802   1.401       .  A
C1801      C1806   1.405       .  A
C1802      C1803   1.399       .  A
C1802      H1811   1.083       .  S
C1803      C1804   1.406       .  A
C1803      H1812   1.084       .  S
C1804      C1810   1.397       .  A
C1804      C1805   1.411       .  A
C1805      C1807   1.404       .  A
C1805      C1806   1.395       .  A
C1806      H1813   1.085       .  S
C1807      C1808   1.396       .  A
C1807      H1814   1.084       .  S
C1808      C1809   1.399       .  A
C1808      H1815   1.083       .  S
C1809      C1810   1.406       .  A
C1810      H1816   1.085       .  S
C1817      C1818   1.399       .  A
C1817      C1822   1.408       .  A
C1818      C1819   1.396       .  A
C1819      C1820   1.405       .  A
C1819      H1828   1.084       .  S
C1820      C1826   1.395       .  A
C1820      C1821   1.411       .  A
C1821      C1823   1.407       .  A
C1821      C1822   1.399       .  A
C1822      H1829   1.085       .  S
C1823      C1824   1.400       .  A
C1823      H1830   1.084       .  S
C1824      C1825   1.401       .  A
C1824      H1831   1.083       .  S
C1825      C1826   1.405       .  A
C1826      H1832   1.085       .  S
C1833      C1838   1.410       .  A
C1834      C1835   1.400       .  A
C1834      H1843   1.083       .  S
C1835      C1836   1.405       .  A
C1835      H1844   1.083       .  S
C1836      C1842   1.402       .  A
C1837      C1839   1.406   1_655  A
C1837      C1838   1.403       .  A
C1838      H1845   1.084       .  S
C1839      C1840   1.401       .  A
C1839      H1846   1.083       .  S
C1840      H1847   1.083       .  S
C1841      C1842   1.409       .  A
C1842      H1848   1.085       .  S
C1849      C1850   1.401       .  A
C1849      C1854   1.407   1_655  A
C1850      C1851   1.399       .  A
C1851      C1852   1.405   1_655  A
C1851      H1860   1.084       .  S
C1853      C1855   1.405       .  A
C1855      C1856   1.398       .  A
C1855      H1862   1.084       .  S
C1856      C1857   1.402       .  A
C1856      H1863   1.083       .  S
C1857      C1858   1.409       .  A
C1858      H1864   1.085       .  S
C1865      C1866   1.400       .  A
C1865      C1870   1.404       .  A
C1866      H1875   1.083       .  S
C1867      C1868   1.406       .  A
C1867      H1876   1.083       .  S
C1868      C1874   1.403       .  A
C1869      C1871   1.403       .  A
C1869      C1870   1.401   1_545  A
C1870      H1877   1.084   1_565  S
C1871      H1878   1.083       .  S
C1872      C1873   1.403       .  A
C1872      H1879   1.083       .  S
C1873      C1874   1.409       .  A
C1874      H1880   1.084       .  S
C1881      C1882   1.400       .  A
C1881      C1886   1.404       .  A
C1882      C1883   1.399       .  A
C1882      H1891   1.083       .  S
C1883      C1884   1.406       .  A
C1883      H1892   1.084       .  S
C1884      C1890   1.400       .  A
C1885      C1887   1.403       .  A
C1887      C1888   1.396       .  A
C1887      H1894   1.084       .  S
C1888      C1889   1.403       .  A
C1888      H1895   1.083       .  S
C1889      C1966   1.473       .  S
C1890      H1896   1.085       .  S
C1897      C1898   1.400       .  A
C1897      C1902   1.404       .  A
C1898      C1899   1.402       .  A
C1898      H1907   1.083       .  S
C1899      C1900   1.408       .  A
C1899      H1908   1.083       .  S
C1900      C1906   1.402       .  A
C1900      C1901   1.411       .  A
C1901      C1903   1.402       .  A
C1901      C1902   1.395       .  A
C1902      H1909   1.085       .  S
C1903      C1904   1.395       .  A
C1903      H1910   1.084       .  S
C1904      C1905   1.402       .  A
C1904      H1911   1.083       .  S
C1905      C1906   1.411       .  A
C1906      H1912   1.084       .  S
C1913      C1914   1.401       .  A
C1913      C1918   1.408       .  A
C1914      C1915   1.400       .  A
C1914      H1923   1.083       .  S
C1915      C1916   1.406       .  A
C1915      H1924   1.083       .  S
C1916      C1922   1.402       .  A
C1916      C1917   1.411       .  A
C1917      C1919   1.405       .  A
C1917      C1918   1.402       .  A
C1918      H1925   1.084       .  S
C1919      C1920   1.399       .  A
C1919      H1926   1.083       .  S
C1920      C1921   1.403       .  A
C1920      H1927   1.083       .  S
C1921      C1922   1.409       .  A
C1922      H1928   1.084       .  S
C1929      C1930   1.401       .  A
C1929      C1934   1.409       .  A
C1930      C2211   1.399       .  A
C1930      H1939   1.083       .  S
C1931      C2210   1.399       .  A
C1931      C1932   1.405       .  A
C1931      H1940   1.083       .  S
C1932      C1938   1.399       .  A
C1932      C2213   1.411       .  A
C1933      C2212   1.411   1_556  A
C1933      C1935   1.406       .  A
C1933      C1934   1.399   1_556  A
C1934      H1941   1.084       .  S
C1935      C2216   1.399       .  A
C1935      H1942   1.083       .  S
C1936      C2215   1.399       .  A
C1936      C1937   1.399       .  A
C1936      H1943   1.083       .  S
C1937      C1938   1.406       .  A
C1938      H1944   1.085   1_655  S
C1945      C1946   1.402       .  A
C1945      C1950   1.411       .  A
C1946      C1947   1.400       .  A
C1946      H1955   1.083       .  S
C1947      C1948   1.405       .  A
C1947      H1956   1.084       .  S
C1948      C2234   1.401       .  A
C1948      C2229   1.411       .  A
C1949      C2228   1.411   1_554  A
C1949      C1951   1.408       .  A
C1949      C2230   1.403   1_554  A
C1950      C2229   1.403       .  A
C1950      H1957   1.084       .  S
C1951      C1952   1.402       .  A
C1951      H1958   1.084       .  S
C1952      C1953   1.400       .  A
C1952      H1959   1.083       .  S
C1953      C1954   1.407       .  A
C1954      C2228   1.401   1_554  A
C1954      H2240   1.085       .  S
H1960      C2234   1.085       .  S
O1961      C1976   1.270       .  A
O1961     Al1969   1.952       .  S
C1962      O1972   1.272       .  A
C1962      O1963   1.256       .  A
C1962      C2233   1.471       .  S
O1963     Al1965   1.861       .  S
O1964      C1966   1.269       .  A
O1964     Al1965   1.940       .  S
Al1965     O1973   1.943       .  S
Al1965     O1975   1.871       .  S
Al1965     O1974   1.778       .  S
C1966      O1979   1.259       .  A
O1967      C1977   1.267       .  A
O1967     Al1969   1.942       .  S
O1968      C1981   1.270       .  A
O1968     Al1978   1.942       .  S
Al1969     O1982   1.874       .  S
Al1969     O1979   1.877       .  S
Al1969     O1974   1.780       .  S
O1970      C1977   1.255       .  A
O1970     Al1978   1.870       .  S
O1971      C1980   1.253       .  A
O1971     Al1978   1.865       .  S
O1972     Al1978   1.959       .  S
O1973      C1980   1.265       .  A
O1974     Al1978   1.772       .  S
O1975      C1976   1.258       .  A
C1976      C2209   1.473       .  S
C1980      C2177   1.467       .  S
C1981      O1982   1.258       .  A
C1981      C2145   1.468       .  S
O1983      C1998   1.266       .  A
O1983     Al1991   1.944       .  S
C1984      O1994   1.266       .  A
C1984      O1985   1.255       .  A
O1985     Al1987   1.869       .  S
O1986      C1988   1.270       .  A
O1986     Al1987   1.947       .  S
Al1987     O1995   1.941       .  S
Al1987     O1997   1.874       .  S
Al1987     O1996   1.773       .  S
C1988      O2001   1.257       .  A
O1989      C1999   1.270       .  A
O1989     Al1991   1.945       .  S
O1990      C2003   1.268       .  A
O1990     Al2000   1.944       .  S
Al1991     O2004   1.870       .  S
Al1991     O2001   1.858       .  S
Al1991     O1996   1.774       .  S
O1992      C1999   1.260       .  A
O1992     Al2000   1.881       .  S
O1993      C2002   1.257       .  A
O1993     Al2000   1.865       .  S
O1994     Al2000   1.938       .  S
O1995      C2002   1.269       .  A
O1996     Al2000   1.781       .  S
O1997      C1998   1.255       .  A
C1998      C2113   1.478       .  S
C1999      C2153   1.478       .  S
C2002      C2161   1.464       .  S
C2003      O2004   1.258       .  A
C2003      C2081   1.466       .  S
O2005      C2020   1.267       .  A
O2005     Al2013   1.934       .  S
C2006      O2016   1.267       .  A
C2006      O2007   1.256       .  A
C2006      C2201   1.477       .  S
O2007     Al2009   1.878       .  S
O2008      C2010   1.269       .  A
O2008     Al2009   1.938       .  S
Al2009     O2017   1.940       .  S
Al2009     O2019   1.874       .  S
Al2009     O2018   1.775       .  S
C2010      O2023   1.258       .  A
C2010      C2049   1.470       .  S
O2011      C2021   1.268       .  A
O2011     Al2013   1.945       .  S
O2012      C2025   1.269       .  A
O2012     Al2022   1.948       .  S
Al2013     O2026   1.876       .  S
Al2013     O2023   1.871       .  S
Al2013     O2018   1.779       .  S
O2014      C2021   1.257       .  A
O2014     Al2022   1.868       .  S
O2015      C2024   1.256       .  A
O2015     Al2022   1.859       .  S
O2016     Al2022   1.941       .  S
O2017      C2024   1.268       .  A
O2018     Al2022   1.775       .  S
O2019      C2020   1.256       .  A
C2020      C2185   1.475       .  S
C2021      C2105   1.466       .  S
C2024      C2089   1.463       .  S
C2025      O2026   1.258       .  A
C2025      C2065   1.473       .  S
O2027      C2042   1.269       .  A
O2027     Al2035   1.947       .  S
C2028      O2038   1.271       .  A
C2028      O2029   1.259       .  A
C2028      C2225   1.479       .  S
O2029     Al2031   1.876       .  S
O2030      C2032   1.267       .  A
O2030     Al2031   1.940       .  S
Al2031     O2039   1.941       .  S
Al2031     O2041   1.864       .  S
Al2031     O2040   1.779       .  S
C2032      O2045   1.256       .  A
C2032      C2137   1.473       .  S
O2033      C2043   1.269       .  A
O2033     Al2035   1.937       .  S
O2034      C2047   1.268       .  A
O2034     Al2044   1.949       .  S
Al2035     O2048   1.871       .  S
Al2035     O2045   1.873       .  S
Al2035     O2040   1.775       .  S
O2036      C2043   1.260       .  A
O2036     Al2044   1.880       .  S
O2037      C2046   1.258       .  A
O2037     Al2044   1.875       .  S
O2038     Al2044   1.955       .  S
O2039      C2046   1.267       .  A
O2040     Al2044   1.780       .  S
O2041      C2042   1.256       .  A
C2043      C2073   1.473       .  S
C2047      O2048   1.256       .  A
C2047      C2121   1.476       .  S
C2049      C2050   1.401       .  A
C2049      C2054   1.408       .  A
C2050      C2051   1.397       .  A
C2050      H2059   1.083       .  S
C2051      C2052   1.404       .  A
C2051      H2060   1.084       .  S
C2052      C2058   1.398       .  A
C2052      C2053   1.412       .  A
C2053      C2055   1.406       .  A
C2053      C2054   1.401       .  A
C2054      H2061   1.085       .  S
C2055      C2056   1.400       .  A
C2055      H2062   1.084       .  S
C2056      C2057   1.401       .  A
C2056      H2063   1.083       .  S
C2057      C2058   1.405       .  A
C2058      H2064   1.085       .  S
C2065      C2066   1.402       .  A
C2065      C2070   1.406       .  A
C2066      C2067   1.401       .  A
C2066      H2075   1.083       .  S
C2067      C2068   1.406       .  A
C2067      H2076   1.083       .  S
C2068      C2074   1.404       .  A
C2068      C2069   1.412       .  A
C2069      C2071   1.403       .  A
C2069      C2070   1.400       .  A
C2070      H2077   1.084       .  S
C2071      C2072   1.397       .  A
C2071      H2078   1.083       .  S
C2072      C2073   1.401       .  A
C2072      H2079   1.083       .  S
C2073      C2074   1.408       .  A
C2074      H2080   1.084       .  S
C2081      C2082   1.401       .  A
C2081      C2086   1.405       .  A
C2082      C2083   1.399       .  A
C2082      H2091   1.083       .  S
C2083      C2084   1.406       .  A
C2083      H2092   1.084       .  S
C2084      C2090   1.397       .  A
C2084      C2085   1.411       .  A
C2085      C2087   1.404       .  A
C2085      C2086   1.395       .  A
C2086      H2093   1.085       .  S
C2087      C2088   1.396       .  A
C2087      H2094   1.084       .  S
C2088      C2089   1.399       .  A
C2088      H2095   1.083       .  S
C2089      C2090   1.406       .  A
C2090      H2096   1.085       .  S
C2097      C2098   1.399       .  A
C2097      C2102   1.408       .  A
C2098      C2099   1.396       .  A
C2099      C2100   1.404       .  A
C2099      H2108   1.084       .  S
C2100      C2106   1.395       .  A
C2100      C2101   1.411       .  A
C2101      C2103   1.407       .  A
C2101      C2102   1.399       .  A
C2102      H2109   1.085       .  S
C2103      C2104   1.400       .  A
C2103      H2110   1.084       .  S
C2104      C2105   1.401       .  A
C2104      H2111   1.083       .  S
C2105      C2106   1.405       .  A
C2106      H2112   1.085       .  S
C2113      C2118   1.410       .  A
C2114      C2115   1.400       .  A
C2114      H2123   1.083       .  S
C2115      C2116   1.405       .  A
C2115      H2124   1.083       .  S
C2116      C2122   1.402       .  A
C2117      C2119   1.406   1_655  A
C2117      C2118   1.403       .  A
C2118      H2125   1.084       .  S
C2119      C2120   1.401       .  A
C2119      H2126   1.083       .  S
C2120      H2127   1.083       .  S
C2121      C2122   1.409       .  A
C2122      H2128   1.084       .  S
C2129      C2130   1.401       .  A
C2129      C2134   1.407   1_655  A
C2130      C2131   1.399       .  A
C2131      C2132   1.406   1_655  A
C2131      H2140   1.084       .  S
C2133      C2135   1.405       .  A
C2135      C2136   1.398       .  A
C2135      H2142   1.084       .  S
C2136      C2137   1.401       .  A
C2136      H2143   1.083       .  S
C2137      C2138   1.409       .  A
C2138      H2144   1.085       .  S
C2145      C2146   1.401       .  A
C2145      C2150   1.404       .  A
C2146      H2155   1.083       .  S
C2147      C2148   1.406       .  A
C2147      H2156   1.083       .  S
C2148      C2154   1.403       .  A
C2149      C2151   1.403       .  A
C2149      C2150   1.401   1_545  A
C2150      H2157   1.084   1_565  S
C2151      H2158   1.083       .  S
C2152      C2153   1.403       .  A
C2152      H2159   1.083       .  S
C2153      C2154   1.409       .  A
C2154      H2160   1.084       .  S
C2161      C2162   1.400       .  A
C2161      C2166   1.403       .  A
C2162      C2163   1.399       .  A
C2162      H2171   1.083       .  S
C2163      C2164   1.406       .  A
C2163      H2172   1.084       .  S
C2164      C2170   1.400       .  A
C2165      C2167   1.403       .  A
C2167      C2168   1.396       .  A
C2167      H2174   1.084       .  S
C2168      C2169   1.403       .  A
C2168      H2175   1.083       .  S
C2170      H2176   1.085       .  S
C2177      C2178   1.400       .  A
C2177      C2182   1.404       .  A
C2178      C2179   1.402       .  A
C2178      H2187   1.083       .  S
C2179      C2180   1.408       .  A
C2179      H2188   1.083       .  S
C2180      C2186   1.402       .  A
C2180      C2181   1.411       .  A
C2181      C2183   1.402       .  A
C2181      C2182   1.395       .  A
C2182      H2189   1.085       .  S
C2183      C2184   1.395       .  A
C2183      H2190   1.084       .  S
C2184      C2185   1.402       .  A
C2184      H2191   1.083       .  S
C2185      C2186   1.411       .  A
C2186      H2192   1.084       .  S
C2193      C2194   1.401       .  A
C2193      C2198   1.408       .  A
C2194      C2195   1.400       .  A
C2194      H2203   1.083       .  S
C2195      C2196   1.406       .  A
C2195      H2204   1.083       .  S
C2196      C2202   1.402       .  A
C2196      C2197   1.411       .  A
C2197      C2199   1.405       .  A
C2197      C2198   1.402       .  A
C2198      H2205   1.084       .  S
C2199      C2200   1.399       .  A
C2199      H2206   1.083       .  S
C2200      C2201   1.403       .  A
C2200      H2207   1.083       .  S
C2201      C2202   1.409       .  A
C2202      H2208   1.084       .  S
C2209      C2210   1.401       .  A
C2209      C2214   1.409       .  A
C2210      H2219   1.083       .  S
C2211      C2212   1.405       .  A
C2211      H2220   1.083       .  S
C2212      C2218   1.399   1_554  A
C2213      C2215   1.406       .  A
C2213      C2214   1.399       .  A
C2214      H2221   1.084       .  S
C2215      H2222   1.083       .  S
C2216      C2217   1.399       .  A
C2216      H2223   1.083       .  S
C2217      C2218   1.406       .  A
C2218      H2224   1.085   1_655  S
C2225      C2226   1.402       .  A
C2225      C2230   1.411       .  A
C2226      C2227   1.400       .  A
C2226      H2235   1.083       .  S
C2227      C2228   1.405       .  A
C2227      H2236   1.084       .  S
C2229      C2231   1.408       .  A
C2230      H2237   1.084       .  S
C2231      C2232   1.402       .  A
C2231      H2238   1.084       .  S
C2232      C2233   1.400       .  A
C2232      H2239   1.083       .  S
C2233      C2234   1.407       .  A
