geometry optimzed in LAMMPS
_audit_creation_date              2020-11-30 
_audit_creation_method            'lammps2cif' 
_symmetry_space_group_name_H-M    'P1' 
_symmetry_Int_Tables_number       1 
_symmetry_cell_setting            triclinic 
loop_ 
_symmetry_equiv_pos_as_xyz 
  x,y,z 
_cell_length_a                    30.32350952 
_cell_length_b                    32.1311824873597 
_cell_length_c                    33.08769434032987 
_cell_angle_alpha                 89.68334092646359 
_cell_angle_beta                  89.74919755989745 
_cell_angle_gamma                 89.46090541098211 
loop_ 
_atom_site_label 
_atom_site_type_symbol 
_atom_site_fract_x 
_atom_site_fract_y 
_atom_site_fract_z 
_atom_site_charge 
N1          N  0.31058249  0.44703688  0.03277485    -0.06300
N2          N  0.34642510  0.43267947  0.05135001    -0.58400
N3          N  0.27075094  0.42004934  0.94402395    -0.06000
N4          N  0.27927128  0.38937238  0.91889362    -0.60600
N5          N  0.30157656  0.44858577  0.94158153    -0.05600
N6          N  0.33236476  0.43688204  0.91535966    -0.58400
N7          N  0.27889751  0.41934430  0.03587409    -0.05300
N8          N  0.29197688  0.38696176  0.05728338    -0.60900
C9          C  0.33370714  0.39564861  0.06754604     0.95900
C10         C  0.31730600  0.40033791  0.90068650     0.95600
N11         N  0.13624932  0.44401225  0.95311319    -0.06500
N12         N  0.11124583  0.44141264  0.92070559    -0.59000
N13         N  0.17634204  0.41678788  0.04509696    -0.04600
N14         N  0.17841580  0.39537455  0.07925629    -0.60300
N15         N  0.14326192  0.44339273  0.04625351    -0.06500
N16         N  0.12197284  0.44059926  0.08092241    -0.59300
N17         N  0.16865055  0.41670826  0.95133130    -0.04300
N18         N  0.16632461  0.39490634  0.91780673    -0.60400
Mn19       Mn  0.22333093  0.41731065  0.99425493     1.18400
C20         C  0.13024050  0.41043039  0.89898894     0.97900
C21         C  0.14388286  0.41027665  0.10108424     0.98600
N22         N  0.29562623  0.55000668  0.94210867    -0.06600
N23         N  0.32595734  0.56696680  0.91839977    -0.62900
N24         N  0.27115960  0.57537034  0.03567836    -0.05400
N25         N  0.28289513  0.61031713  0.05295627    -0.63500
N26         N  0.30542633  0.54990647  0.03238919    -0.06100
N27         N  0.34113930  0.56822579  0.04667005    -0.63100
N28         N  0.26112975  0.57517161  0.94460155    -0.05000
N29         N  0.26681167  0.60848076  0.92202382    -0.63800
Mn30       Mn  0.30445299  0.49879955  0.98726190     1.10700
C31         C  0.30708634  0.60319633  0.90558541     0.99200
C32         C  0.32639269  0.60576413  0.05986320     0.99200
N33         N  0.13880528  0.53873158  0.04743718    -0.06100
N34         N  0.11991604  0.53763728  0.08336319    -0.61400
N35         N  0.15910338  0.57018409  0.95234495    -0.05400
N36         N  0.15387697  0.59201170  0.91879845    -0.58200
N37         N  0.12985674  0.54041240  0.95445220    -0.06700
N38         N  0.10406241  0.54138067  0.92247470    -0.61000
N39         N  0.16804616  0.56861042  0.04565515    -0.05700
N40         N  0.16925127  0.58889128  0.08020020    -0.58200
Mn41       Mn  0.13520172  0.49156650  0.00027253     1.20200
Mn42       Mn  0.21433975  0.57297429  0.99476626     1.10100
Cl43       Cl  0.21965233  0.49519764  0.99419664    -0.86200
C44         C  0.13863913  0.56950785  0.10315250     0.96200
C45         C  0.11881465  0.57427150  0.90092962     0.96000
N46         N  0.85459579  0.45099957  0.04362412    -0.06300
N47         N  0.87818191  0.45046589  0.07709577    -0.58400
N48         N  0.82232205  0.42168432  0.95047966    -0.06000
N49         N  0.82361650  0.40004614  0.91670142    -0.60600
N50         N  0.85184106  0.45127512  0.94950604    -0.05600
N51         N  0.87375121  0.45040881  0.91495722    -0.58400
N52         N  0.82473756  0.42163964  0.04475997    -0.05300
N53         N  0.82731301  0.40055624  0.07907053    -0.60900
C54         C  0.86131870  0.41837854  0.09852258     0.95900
C55         C  0.85610353  0.41805503  0.89477560     0.95600
N56         N  0.68586374  0.44381417  0.95479916    -0.06500
N57         N  0.65410627  0.43002262  0.93110241    -0.59000
N58         N  0.72225355  0.41718318  0.04599007    -0.04600
N59         N  0.71662232  0.38621211  0.07150903    -0.60300
N60         N  0.68821554  0.44293279  0.04695636    -0.06500
N61         N  0.65825294  0.42903356  0.07291298    -0.59300
N62         N  0.71974089  0.41778359  0.95386870    -0.04300
N63         N  0.71211333  0.38678274  0.92910640    -0.60400
Mn64       Mn  0.77270800  0.41855319  0.99876275     1.18400
C65         C  0.67140415  0.39476533  0.91471075     0.97900
C66         C  0.67692495  0.39385604  0.08845465     0.98600
N67         N  0.84678798  0.54779402  0.94981129    -0.06600
N68         N  0.86902538  0.55100561  0.91561429    -0.62900
N69         N  0.81700266  0.57397726  0.04473690    -0.05400
N70         N  0.81809096  0.59532485  0.07866285    -0.63500
N71         N  0.84995961  0.54720348  0.04327755    -0.06100
N72         N  0.87443077  0.54995211  0.07603324    -0.63100
N73         N  0.81417120  0.57494766  0.95060861    -0.05000
N74         N  0.81350711  0.59709357  0.91688671    -0.63800
Mn75       Mn  0.85268485  0.49935266  0.99642884     1.10700
C76         C  0.84814222  0.58210827  0.89534674     0.99200
C77         C  0.85427822  0.58025099  0.09765916     0.99200
N78         N  0.68251576  0.54386485  0.04727869    -0.06100
N79         N  0.64974416  0.55658925  0.07099181    -0.61400
N80         N  0.71111723  0.57334320  0.95495876    -0.05400
N81         N  0.69876112  0.60626812  0.93393673    -0.58200
N82         N  0.67928777  0.54566961  0.95634663    -0.06700
N83         N  0.64409336  0.56045306  0.93713999    -0.61000
N84         N  0.71407946  0.57179317  0.04672860    -0.05700
N85         N  0.70402079  0.60305655  0.07060188    -0.58200
Mn86       Mn  0.68258545  0.49381596  0.00128535     1.20200
Mn87       Mn  0.76458960  0.57430635  0.99921788     1.10100
Cl88       Cl  0.76769243  0.49649792  0.99882631    -0.86200
C89         C  0.66423399  0.59324247  0.08595298     0.96200
C90         C  0.65736036  0.59781087  0.92233021     0.96000
N91         N  0.44982488  0.03747830  0.27731613    -0.06300
N92         N  0.43113574  0.06028926  0.30617742    -0.58400
N93         N  0.42416637  0.94461727  0.24184600    -0.06000
N94         N  0.38911169  0.92122320  0.24616131    -0.60600
N95         N  0.44879605  0.94306496  0.27459567    -0.05600
N96         N  0.42977845  0.91868403  0.30204349    -0.58400
N97         N  0.42482062  0.03856400  0.24477237    -0.05300
N98         N  0.38996783  0.06234424  0.25059270    -0.60900
C99         C  0.39392225  0.07607644  0.28874375     0.95900
C100        C  0.39282181  0.90465991  0.28343638     0.95600
N101        N  0.46947300  0.94793188  0.12162390    -0.06500
N102        N  0.47274498  0.91261946  0.10146986    -0.59000
N103        N  0.43554190  0.04419307  0.15125311    -0.04600
N104        N  0.41303858  0.07961910  0.15008996    -0.60300
N105        N  0.46860482  0.04533414  0.12557431    -0.06500
N106        N  0.46930624  0.08158296  0.10655661    -0.59300
N107        N  0.43698807  0.94620091  0.14794466    -0.04300
N108        N  0.41762256  0.90962034  0.14612704    -0.60400
Mn109      Mn  0.42953570  0.99336223  0.19589182     1.18400
C110        C  0.44004791  0.88893627  0.11682474     0.97900
C111        C  0.43428066  0.10277789  0.12188288     0.98600
N112        N  0.55731849  0.94093025  0.28415449    -0.06600
N113        N  0.57041204  0.91716337  0.31490918    -0.62900
N114        N  0.59010305  0.03485902  0.25946752    -0.05400
N115        N  0.62517015  0.05478943  0.27175496    -0.63500
N116        N  0.55918714  0.03467483  0.28766412    -0.06100
N117        N  0.57394052  0.05414457  0.32026497    -0.63100
N118        N  0.58803250  0.94098538  0.25578114    -0.05000
N119        N  0.62130093  0.91667504  0.26602558    -0.63800
Mn120      Mn  0.50347908  0.98913436  0.28229313     1.10700
C121        C  0.61010347  0.90158356  0.30262042     0.99200
C122        C  0.61489246  0.06727329  0.30929733     0.99200
N123        N  0.56966959  0.04420827  0.13503488    -0.06100
N124        N  0.57000462  0.08201855  0.11907931    -0.61400
N125        N  0.59495950  0.94352465  0.16196886    -0.05400
N126        N  0.61131276  0.90541299  0.16515801    -0.58200
N127        N  0.56936994  0.94649607  0.13014639    -0.06700
N128        N  0.56827376  0.91055154  0.11093143    -0.61000
N129        N  0.59612748  0.04212996  0.16634277    -0.05700
N130        N  0.61465935  0.07859415  0.17242752    -0.58200
Mn131      Mn  0.51964375  0.99630892  0.12624395     1.20200
Mn132      Mn  0.59316194  0.99031696  0.21017426     1.10100
Cl133      Cl  0.51137885  0.99236313  0.20408701    -0.86200
C134        C  0.59840525  0.10309513  0.14257114     0.96200
C135        C  0.59497341  0.88531358  0.13280689     0.96000
N136        N  0.44364163  0.05208651  0.85800254    -0.06300
N137        N  0.44348084  0.08930386  0.87490136    -0.58400
N138        N  0.41323897  0.95408079  0.83305766    -0.06000
N139        N  0.39250547  0.91830112  0.83097775    -0.60600
N140        N  0.44050439  0.95397657  0.86377540    -0.05600
N141        N  0.43869003  0.91787853  0.88325224    -0.58400
N142        N  0.41727669  0.05190081  0.82662939    -0.05300
N143        N  0.39891703  0.08896960  0.82136413    -0.60900
C144        C  0.41506701  0.11187973  0.85197967     0.95900
C145        C  0.40814805  0.89609118  0.86261683     0.95600
N146        N  0.45019243  0.94512986  0.71221953    -0.06500
N147        N  0.43584192  0.91987763  0.68355275    -0.59000
N148        N  0.42288228  0.04311596  0.73328489    -0.04600
N149        N  0.38976306  0.06645729  0.72076381    -0.60300
N150        N  0.45296370  0.03896958  0.70465623    -0.06500
N151        N  0.43959965  0.05896471  0.67159569    -0.59300
N152        N  0.41959965  0.94904637  0.74045729    -0.04300
N153        N  0.38526860  0.92592058  0.73242608    -0.60400
Mn154      Mn  0.41745716  0.99981770  0.78392442     1.18400
C155        C  0.39554352  0.90756870  0.69721948     0.97900
C156        C  0.40061558  0.07692765  0.68265187     0.98600
N157        N  0.54171458  0.95090365  0.87095870    -0.06600
N158        N  0.53891208  0.91561686  0.89156433    -0.62900
N159        N  0.57700441  0.04597939  0.83891994    -0.05400
N160        N  0.59961127  0.08087236  0.83771441    -0.63500
N161        N  0.54420957  0.04898666  0.86482848    -0.06100
N162        N  0.54337285  0.08641859  0.88126332    -0.63100
N163        N  0.57481588  0.94904502  0.84526473    -0.05000
N164        N  0.59552427  0.91286967  0.84824560    -0.63800
Mn165      Mn  0.49229857  0.00149383  0.86647519     1.10700
C166        C  0.57319634  0.89248189  0.87755325     0.99200
C167        C  0.57858447  0.10564590  0.86456793     0.99200
N168        N  0.56060428  0.03638567  0.71335254    -0.06100
N169        N  0.57853654  0.05793550  0.68333271    -0.61400
N170        N  0.58534585  0.94436452  0.75196071    -0.05400
N171        N  0.62089748  0.92110136  0.74794838    -0.58200
N172        N  0.56049618  0.94246562  0.71939173    -0.06700
N173        N  0.58031123  0.91816565  0.69218103    -0.61000
N174        N  0.58612216  0.03806152  0.74547016    -0.05700
N175        N  0.62085828  0.06106109  0.73819901    -0.58200
Mn176      Mn  0.50619404  0.99036113  0.71100444     1.20200
Mn177      Mn  0.58151260  0.99442259  0.79598702     1.10100
Cl178      Cl  0.49941918  0.99638491  0.78899335    -0.86200
C179        C  0.61573844  0.07383256  0.69971211     0.96200
C180        C  0.61767841  0.90432074  0.71101005     0.96000
N181        N  0.06032096  0.20485652  0.45295805    -0.06300
N182        N  0.07869540  0.17501156  0.43063478    -0.58400
N183        N  0.08458739  0.23439398  0.54551991    -0.06000
N184        N  0.11953163  0.22495648  0.56729945    -0.60600
N185        N  0.05753690  0.20251690  0.54375660    -0.05600
N186        N  0.07499899  0.17034430  0.56357479    -0.58400
N187        N  0.08702361  0.23698977  0.45427388    -0.05300
N188        N  0.12248687  0.23044565  0.43234369    -0.60900
C189        C  0.11718097  0.19210681  0.41749072     0.95900
C190        C  0.11312584  0.18534020  0.57900547     0.95600
N191        N  0.05004050  0.36082126  0.54736617    -0.06500
N192        N  0.04947150  0.38048797  0.58233131    -0.59000
N193        N  0.08357559  0.33301541  0.45386141    -0.04600
N194        N  0.10642372  0.33298888  0.41988385    -0.60300
N195        N  0.05326602  0.36240960  0.45311964    -0.06500
N196        N  0.05488857  0.38304463  0.41850042    -0.59300
N197        N  0.08015101  0.33118580  0.54770585    -0.04300
N198        N  0.10067470  0.32991645  0.58266931    -0.60400
Mn199      Mn  0.08434540  0.28450047  0.50047846     1.18400
C200        C  0.08172179  0.36117069  0.60364792     0.97900
C201        C  0.08860508  0.36463171  0.39821946     0.98600
N202        N  0.94807132  0.20264097  0.54173747    -0.06600
N203        N  0.93005747  0.17061813  0.56106600    -0.62900
N204        N  0.92167970  0.23490267  0.45039239    -0.05400
N205        N  0.88702722  0.22577776  0.42843569    -0.63500
N206        N  0.95016975  0.20356787  0.45093231    -0.06100
N207        N  0.93394978  0.17201563  0.43009148    -0.63100
N208        N  0.92019236  0.23447058  0.54192918    -0.05000
N209        N  0.88426316  0.22524631  0.56209012    -0.63800
Mn210      Mn  0.00403025  0.20203352  0.49725543     1.10700
C211        C  0.89029253  0.18557215  0.57379865     0.99200
C212        C  0.89498863  0.18687535  0.41543249     0.99200
N213        N  0.95168447  0.36142228  0.45025254    -0.06100
N214        N  0.95140159  0.38222712  0.41570400    -0.61400
N215        N  0.91847737  0.33138692  0.54360844    -0.05400
N216        N  0.89408638  0.33199829  0.57679571    -0.58200
N217        N  0.94833036  0.36066083  0.54468791    -0.06700
N218        N  0.94534028  0.38147431  0.57889570    -0.61000
N219        N  0.92219766  0.33180313  0.44959977    -0.05700
N220        N  0.90114424  0.33192223  0.41483066    -0.58200
Mn221      Mn  0.00081107  0.36325938  0.49888127     1.20200
Mn222      Mn  0.92004848  0.28364849  0.49639743     1.10100
Cl223      Cl  0.00226658  0.28273418  0.49827359    -0.86200
C224        C  0.91931049  0.36376242  0.39400284     0.96200
C225        C  0.91083570  0.36379746  0.59825491     0.96000
N226        N  0.05511583  0.61872525  0.45261018    -0.06300
N227        N  0.05891500  0.59594788  0.41970256    -0.58400
N228        N  0.08099766  0.64924576  0.54660187    -0.06000
N229        N  0.10053995  0.65008887  0.58207423    -0.60600
N230        N  0.05036325  0.62062950  0.54614516    -0.05600
N231        N  0.04849586  0.60137224  0.58139353    -0.58400
N232        N  0.08565029  0.64729811  0.45315264    -0.05300
N233        N  0.11095775  0.64458129  0.42079426    -0.60900
C234        C  0.09422927  0.61219683  0.40023290     0.95900
C235        C  0.08013874  0.61995407  0.60344777     0.95600
N236        N  0.06100591  0.77824934  0.54242864    -0.06500
N237        N  0.08007434  0.80933946  0.56200937    -0.59000
N238        N  0.08877927  0.74397938  0.45211658    -0.04600
N239        N  0.12313751  0.74943909  0.42851209    -0.60300
N240        N  0.06211567  0.77667375  0.45095113    -0.06500
N241        N  0.07919921  0.80553559  0.42671717    -0.59300
N242        N  0.08733940  0.74534318  0.54317685    -0.04300
N243        N  0.12338531  0.75301877  0.56346597    -0.60400
Mn244      Mn  0.08620868  0.69595764  0.49875912     1.18400
C245        C  0.11880259  0.79261542  0.57548831     0.97900
C246        C  0.11709201  0.78759059  0.41253079     0.98600
N247        N  0.94867243  0.62275422  0.54272137    -0.06600
N248        N  0.94501260  0.60205215  0.57724130    -0.62900
N249        N  0.92501325  0.65447056  0.44706841    -0.05400
N250        N  0.90676005  0.65773911  0.41111345    -0.63500
N251        N  0.95372411  0.62360660  0.44780712    -0.06100
N252        N  0.95551946  0.60521886  0.41214348    -0.63100
N253        N  0.92011659  0.65362714  0.54156335    -0.05000
N254        N  0.89650544  0.65470528  0.57511335    -0.63800
Mn255      Mn  0.00178730  0.61943831  0.49733489     1.10700
C256        C  0.91189980  0.62208947  0.59698877     0.99200
C257        C  0.92585812  0.62683095  0.38963632     0.99200
N258        N  0.95259108  0.78200046  0.45015576    -0.06100
N259        N  0.93521863  0.81447865  0.43055763    -0.61400
N260        N  0.92248054  0.74992919  0.54046183    -0.05400
N261        N  0.88908956  0.75688591  0.56490824    -0.58200
N262        N  0.95105226  0.78062464  0.54176423    -0.06700
N263        N  0.93626803  0.80981043  0.56695629    -0.61000
N264        N  0.92473428  0.75074252  0.44912169    -0.05700
N265        N  0.88944754  0.76083763  0.42834558    -0.58200
Mn266      Mn  0.00671684  0.78107110  0.49636399     1.20200
Mn267      Mn  0.92248162  0.70162339  0.49448705     1.10100
Cl268      Cl  0.00434834  0.70016696  0.49674167    -0.86200
C269        C  0.89611189  0.80023194  0.41634099     0.96200
C270        C  0.89775472  0.79391955  0.58156150     0.96000
C271        C  0.70522505  0.87395573  0.63308273    -0.02200
C272        C  0.73903902  0.85731213  0.65799792     0.06400
C273        C  0.73047312  0.85282588  0.69945235    -0.08200
C274        C  0.68975110  0.86434756  0.71621909     0.03800
C275        C  0.65661685  0.88316759  0.69187804    -0.15400
C276        C  0.66466937  0.88701037  0.65013554    -0.08700
C277        C  0.78289029  0.84283637  0.64170953     0.04800
C278        C  0.80942456  0.86994363  0.61859322    -0.09900
C279        C  0.84944165  0.85614510  0.60108136    -0.00300
C280        C  0.86395923  0.81474023  0.60731070    -0.00400
C281        C  0.83887079  0.78872018  0.63253261    -0.13400
C282        C  0.79875822  0.80200202  0.64924251     0.00100
C283        C  0.87302960  0.88394389  0.57449173     0.39400
C284        C  0.77328912  0.77188315  0.67172888     0.36000
C285        C  0.71112876  0.87748517  0.58990294     0.35700
C286        C  0.68297158  0.85583991  0.75870363     0.36500
N287        N  0.89184847  0.90620601  0.55304447    -0.44300
N288        N  0.75311349  0.74762774  0.68978779    -0.44700
N289        N  0.67768647  0.84871305  0.79268515    -0.42100
N290        N  0.71595038  0.88025276  0.55528048    -0.43500
H291        H  0.63985288  0.90131914  0.63094667     0.12600
H292        H  0.75586504  0.84002997  0.71902034     0.09100
H293        H  0.79821958  0.90162965  0.61321979     0.10200
H294        H  0.84942457  0.75668787  0.63727774     0.16000
C295        C  0.23854363  0.82026400  0.58672756    -0.02200
C296        C  0.23822810  0.84668532  0.62050082     0.06400
C297        C  0.19736521  0.85876226  0.63753592    -0.08200
C298        C  0.15733836  0.84358984  0.62215221     0.03800
C299        C  0.15802073  0.81581950  0.58938987    -0.15400
C300        C  0.19885104  0.80529018  0.57154725    -0.08700
C301        C  0.28041212  0.86006692  0.63928292     0.04800
C302        C  0.30937038  0.88573104  0.61737187    -0.09900
C303        C  0.34930979  0.89894034  0.63423380    -0.00300
C304        C  0.36087986  0.88633050  0.67377922    -0.00400
C305        C  0.33254251  0.85950386  0.69502967    -0.13400
C306        C  0.29284265  0.84616505  0.67812997     0.00100
C307        C  0.37602339  0.92782027  0.61153650     0.39400
C308        C  0.26542715  0.81812657  0.70119437     0.36000
C309        C  0.27937210  0.80607800  0.56855983     0.35700
C310        C  0.11640734  0.85483125  0.64176757     0.36500
N311        N  0.39733855  0.95107239  0.59333767    -0.44300
N312        N  0.24347554  0.79558566  0.71960518    -0.44700
N313        N  0.08345303  0.86369287  0.65740541    -0.42100
N314        N  0.31212685  0.79468542  0.55413283    -0.43500
H315        H  0.19993504  0.78405535  0.54617569     0.12600
H316        H  0.19686110  0.87920791  0.66349385     0.09100
H317        H  0.30019120  0.89626444  0.58733475     0.10200
H318        H  0.34081646  0.85001017  0.72562532     0.16000
C319        C  0.81725351  0.11314977  0.63436933    -0.02200
C320        C  0.77539308  0.12294719  0.61794682     0.06400
C321        C  0.77273671  0.14886223  0.58401299    -0.08200
C322        C  0.81040448  0.16701015  0.56771544     0.03800
C323        C  0.85206954  0.16008257  0.58606329    -0.15400
C324        C  0.85533576  0.13180510  0.61834092    -0.08700
C325        C  0.73354551  0.11044572  0.63781951     0.04800
C326        C  0.72467038  0.12529809  0.67677100    -0.09900
C327        C  0.68491513  0.11628510  0.69628300    -0.00300
C328        C  0.65298228  0.09177427  0.67672633    -0.00400
C329        C  0.66099015  0.07850070  0.63697974    -0.13400
C330        C  0.70093686  0.08758656  0.61747021     0.00100
C331        C  0.67782200  0.13260865  0.73645040     0.39400
C332        C  0.70844880  0.07177771  0.57723552     0.36000
C333        C  0.82170297  0.08433733  0.66774654     0.35700
C334        C  0.80494744  0.19291344  0.53216106     0.36500
N335        N  0.67219255  0.14563520  0.76862963    -0.44300
N336        N  0.71448962  0.05918121  0.54496280    -0.44700
N337        N  0.80044949  0.21362374  0.50371607    -0.42100
N338        N  0.82521062  0.06103105  0.69435408    -0.43500
H339        H  0.88715597  0.12571863  0.63208942     0.12600
H340        H  0.74077052  0.15621473  0.57105194     0.09100
H341        H  0.74891329  0.14423540  0.69193190     0.10200
H342        H  0.63703800  0.05924368  0.62185091     0.16000
C343        C  0.21570119  0.11851334  0.57563995    -0.02200
C344        C  0.23567437  0.12770897  0.61310209     0.06400
C345        C  0.21206942  0.15240940  0.64091257    -0.08200
C346        C  0.17046124  0.16913702  0.63144232     0.03800
C347        C  0.15055600  0.15989038  0.59419072    -0.15400
C348        C  0.17318451  0.13391246  0.56691417    -0.08700
C349        C  0.28176815  0.11426709  0.62360109     0.04800
C350        C  0.31209205  0.14464159  0.63584763    -0.09900
C351        C  0.35337529  0.13339051  0.65187260    -0.00300
C352        C  0.36573382  0.09112717  0.65460506    -0.00400
C353        C  0.33670358  0.06089008  0.64017804    -0.13400
C354        C  0.29483337  0.07190562  0.62541807     0.00100
C355        C  0.38130663  0.16549283  0.66776647     0.39400
C356        C  0.26467508  0.03883497  0.61612587     0.36000
C357        C  0.23946047  0.09657444  0.54427655     0.35700
C358        C  0.14969134  0.19744003  0.65960892     0.36500
N359        N  0.40360131  0.19125802  0.68058968    -0.44300
N360        N  0.24075619  0.01210665  0.60871044    -0.44700
N361        N  0.13321982  0.22032456  0.68208794    -0.42100
N362        N  0.25845383  0.07905915  0.51905814    -0.43500
H363        H  0.15909924  0.12838367  0.53736779     0.12600
H364        H  0.22695762  0.15993064  0.66968424     0.09100
H365        H  0.30257847  0.17724785  0.63474408     0.10200
H366        H  0.34528539  0.02820281  0.64373707     0.16000
C367        C  0.77844970  0.83544479  0.41834102    -0.02200
C368        C  0.77211018  0.85081664  0.37874412     0.06400
C369        C  0.80949564  0.85641182  0.35373141    -0.08200
C370        C  0.85182194  0.84361800  0.36639509     0.03800
C371        C  0.85737950  0.82613607  0.40513315    -0.15400
C372        C  0.82073215  0.82394543  0.43120952    -0.08700
C373        C  0.72684303  0.85903919  0.36227135     0.04800
C374        C  0.69762203  0.88615474  0.38262636    -0.09900
C375        C  0.65609851  0.89648341  0.36639259    -0.00300
C376        C  0.64393093  0.88084891  0.32823721    -0.00400
C377        C  0.67181935  0.85166915  0.30936471    -0.13400
C378        C  0.71245930  0.84019030  0.32622590     0.00100
C379        C  0.62844528  0.92576664  0.38792600     0.39400
C380        C  0.73882581  0.80909030  0.30572041     0.36000
C381        C  0.74182303  0.82747771  0.44523764     0.35700
C382        C  0.88825363  0.84599257  0.33831826     0.36500
N383        N  0.60642100  0.94917676  0.40543480    -0.44300
N384        N  0.75980271  0.78406060  0.28928503    -0.44700
N385        N  0.91741642  0.84789043  0.31572375    -0.42100
N386        N  0.71259073  0.82088510  0.46686816    -0.43500
H387        H  0.82464990  0.81005478  0.46097750     0.12600
H388        H  0.80527411  0.86899948  0.32351373     0.09100
H389        H  0.70787882  0.90049940  0.41059174     0.10200
H390        H  0.66263537  0.83913636  0.28022931     0.16000
C391        C  0.22258979  0.79553707  0.35303321    -0.02200
C392        C  0.23432602  0.83760885  0.35775696     0.06400
C393        C  0.20450354  0.86478579  0.37724066    -0.08200
C394        C  0.16427475  0.85024619  0.39315562     0.03800
C395        C  0.15331311  0.80779658  0.38941973    -0.15400
C396        C  0.18250866  0.78126915  0.36846071    -0.08700
C397        C  0.27637060  0.85372786  0.34028976     0.04800
C398        C  0.28310216  0.84992256  0.29864181    -0.09900
C399        C  0.32177770  0.86381350  0.28016440    -0.00300
C400        C  0.35514774  0.88294149  0.30336041    -0.00400
C401        C  0.34891593  0.88587968  0.34544116    -0.13400
C402        C  0.30988210  0.87159775  0.36395170     0.00100
C403        C  0.32528322  0.85820350  0.23704995     0.39400
C404        C  0.30497756  0.87549122  0.40716863     0.36000
C405        C  0.25194026  0.76582768  0.33391133     0.35700
C406        C  0.13614126  0.87899273  0.41477915     0.36500
N407        N  0.32651920  0.85352333  0.20243926    -0.44300
N408        N  0.30098042  0.87866751  0.44181805    -0.44700
N409        N  0.11359477  0.90207936  0.43213693    -0.42100
N410        N  0.27539959  0.74204707  0.31854008    -0.43500
H411        H  0.17470818  0.74856572  0.36538030     0.12600
H412        H  0.21286445  0.89735082  0.38031793     0.09100
H413        H  0.25756908  0.83616504  0.28024974     0.10200
H414        H  0.37379729  0.90065414  0.36375870     0.16000
C415        C  0.69266766  0.13933110  0.36261394    -0.02200
C416        C  0.73026861  0.11325900  0.36732024     0.06400
C417        C  0.72627187  0.07067879  0.35948764    -0.08200
C418        C  0.68714461  0.05458233  0.34385863     0.03800
C419        C  0.65028100  0.08097093  0.33685925    -0.15400
C420        C  0.65307236  0.12303507  0.34752655    -0.08700
C421        C  0.77477912  0.12976929  0.37773366     0.04800
C422        C  0.79589912  0.11591813  0.41314354    -0.09900
C423        C  0.83720212  0.13160825  0.42433721    -0.00300
C424        C  0.85840048  0.16144770  0.39967096    -0.00400
C425        C  0.83809191  0.17403406  0.36352510    -0.13400
C426        C  0.79709726  0.15801488  0.35208862     0.00100
C427        C  0.85555489  0.11904524  0.46275661     0.39400
C428        C  0.77859304  0.17100570  0.31385205     0.36000
C429        C  0.69447581  0.18318971  0.37153927     0.35700
C430        C  0.68710262  0.01149683  0.33173616     0.36500
N431        N  0.87023154  0.10914804  0.49361159    -0.44300
N432        N  0.76362478  0.18138007  0.28325612    -0.44700
N433        N  0.68767915  0.97721503  0.32127623    -0.42100
N434        N  0.69606789  0.21842163  0.37838391    -0.43500
H435        H  0.62538132  0.14372821  0.34152447     0.12600
H436        H  0.75477501  0.05036651  0.36313522     0.09100
H437        H  0.77938722  0.09379505  0.43277119     0.10200
H438        H  0.85374797  0.19744316  0.34472223     0.16000
C439        C  0.27680418  0.11228847  0.30790557    -0.02200
C440        C  0.27809856  0.12690992  0.34779569     0.06400
C441        C  0.31851385  0.12680913  0.36850940    -0.08200
C442        C  0.35737883  0.11169116  0.34989309     0.03800
C443        C  0.35583856  0.09621423  0.30997859    -0.15400
C444        C  0.31519849  0.09748392  0.28942483    -0.08700
C445        C  0.23728371  0.14371032  0.36689297     0.04800
C446        C  0.21295371  0.11872123  0.39373347    -0.09900
C447        C  0.17181626  0.13226138  0.40882902    -0.00300
C448        C  0.15437975  0.17121914  0.39650733    -0.00400
C449        C  0.17884144  0.19580640  0.36942505    -0.13400
C450        C  0.21984806  0.18256688  0.35476720     0.00100
C451        C  0.14958893  0.10678938  0.43846963     0.39400
C452        C  0.24376471  0.20968019  0.32765730     0.36000
C453        C  0.23598769  0.11158435  0.28552296     0.35700
C454        C  0.39822748  0.11317648  0.37200299     0.36500
N455        N  0.13200354  0.08624735  0.46230817    -0.44300
N456        N  0.26283938  0.23149476  0.30596976    -0.44700
N457        N  0.43108919  0.11451084  0.38959032    -0.42100
N458        N  0.20312689  0.11117588  0.26788631    -0.43500
H459        H  0.31280601  0.08595553  0.25879261     0.12600
H460        H  0.31971388  0.13878333  0.39905238     0.09100
H461        H  0.22612205  0.08861437  0.40282597     0.10200
H462        H  0.16638239  0.22630338  0.36061234     0.16000
C463        C  0.64305220  0.68939491  0.14498007    -0.02200
C464        C  0.60572918  0.70609562  0.12503060     0.06400
C465        C  0.58202844  0.68059027  0.09862463    -0.08200
C466        C  0.59723865  0.64030349  0.08929856     0.02000
C467        C  0.63710367  0.62540580  0.10625168    -0.15400
C468        C  0.65818788  0.64939854  0.13553633    -0.08700
C469        C  0.59591720  0.75155771  0.12640973     0.04800
C470        C  0.60220585  0.77531602  0.09107066    -0.09900
C471        C  0.60125545  0.81895401  0.09218921    -0.00300
C472        C  0.59489769  0.83943980  0.12936313    -0.00400
C473        C  0.58635474  0.81568351  0.16426322    -0.13400
C474        C  0.58591255  0.77213632  0.16288305     0.00100
C475        C  0.60919895  0.84187393  0.05526858     0.39400
C476        C  0.57494846  0.74919641  0.19913817     0.36000
C477        C  0.66927447  0.71412993  0.17197469     0.35700
C478        C  0.57388461  0.61679596  0.05927241     0.36500
N479        N  0.61553472  0.86009613  0.02556966    -0.44300
N480        N  0.56598034  0.73084877  0.22817618    -0.44700
N481        N  0.55503181  0.59793284  0.03529371    -0.42100
N482        N  0.69022138  0.73387881  0.19369883    -0.43500
H483        H  0.68901516  0.63833795  0.14842186     0.12600
H484        H  0.55319366  0.69315013  0.08336094     0.09100
H485        H  0.60966462  0.75972508  0.06282660     0.10200
H486        H  0.57955474  0.83122349  0.19267020     0.16000
C487        C  0.66703439  0.29393888  0.14515351    -0.02200
C488        C  0.62470761  0.28091340  0.13364930     0.06400
C489        C  0.59576495  0.30965384  0.11533908    -0.08200
C490        C  0.61015195  0.34967112  0.10460012     0.03800
C491        C  0.65432769  0.36094147  0.11198092    -0.15400
C492        C  0.68131814  0.33372692  0.13451019    -0.08700
C493        C  0.61309985  0.23616000  0.13549519     0.04800
C494        C  0.60723941  0.21684017  0.17315564    -0.09900
C495        C  0.60208074  0.17364367  0.17610882    -0.00300
C496        C  0.60351766  0.14888879  0.14086504    -0.00400
C497        C  0.60818316  0.16846901  0.10312101    -0.13400
C498        C  0.61272886  0.21174709  0.10016050     0.00100
C499        C  0.59351107  0.15597689  0.21552151     0.39400
C500        C  0.61852052  0.23036521  0.06067538     0.36000
C501        C  0.69801299  0.26559391  0.16410806     0.35700
C502        C  0.58024040  0.37679789  0.08291114     0.36500
N503        N  0.58615947  0.14228948  0.24722522    -0.44300
N504        N  0.62301418  0.24555785  0.02914703    -0.44700
N505        N  0.55610944  0.39857900  0.06569893    -0.42100
N506        N  0.72279170  0.24276295  0.17915154    -0.43500
H507        H  0.71516714  0.34220519  0.14073534     0.12600
H508        H  0.56290204  0.29985501  0.10704985     0.09100
H509        H  0.60721652  0.23557216  0.20032752     0.10200
H510        H  0.60911331  0.14981280  0.07591952     0.16000
C511        C  0.58697660  0.69306822  0.93286307    -0.02200
C512        C  0.59776338  0.71460383  0.89689278     0.06400
C513        C  0.62053122  0.69341371  0.86610643    -0.08200
C514        C  0.63559834  0.65244734  0.87198344     0.03800
C515        C  0.62790214  0.63202848  0.90909558    -0.15400
C516        C  0.60197449  0.65199034  0.93861234    -0.08700
C517        C  0.59041311  0.76029682  0.89276471     0.04800
C518        C  0.62713636  0.78652083  0.89334960    -0.09900
C519        C  0.62210443  0.82974941  0.88954020    -0.00300
C520        C  0.57957181  0.84754984  0.88590377    -0.00400
C521        C  0.54272771  0.82134527  0.88583693    -0.13400
C522        C  0.54800688  0.77797951  0.88838916     0.00100
C523        C  0.66106909  0.85521550  0.88987772     0.39400
C524        C  0.51013486  0.75196302  0.88310450     0.36000
C525        C  0.56421183  0.71373269  0.96566930     0.35700
C526        C  0.66104558  0.63260760  0.84042829     0.36500
N527        N  0.69231525  0.87561744  0.88997775    -0.44300
N528        N  0.48031950  0.73059286  0.87778987    -0.44700
N529        N  0.68129414  0.61652789  0.81512625    -0.42100
N530        N  0.54601634  0.73041170  0.99189285    -0.43500
H531        H  0.59696320  0.63694816  0.96765174     0.12600
H532        H  0.62851285  0.70966982  0.83824677     0.09100
H533        H  0.65987881  0.77308944  0.89658295     0.10200
H534        H  0.51001768  0.83457369  0.88165677     0.16000
C535        C  0.65143618  0.29981743  0.85240411    -0.02200
C536        C  0.61562475  0.28183751  0.87334398     0.06400
C537        C  0.59279124  0.30574045  0.90218257    -0.08200
C538        C  0.60738643  0.34547175  0.91279626     0.03800
C539        C  0.64602324  0.36157978  0.89486541    -0.15400
C540        C  0.66666190  0.33912897  0.86364819    -0.08700
C541        C  0.60536942  0.23671314  0.86973711     0.04800
C542        C  0.63881814  0.20741645  0.87828768    -0.09900
C543        C  0.63060632  0.16465136  0.87705409    -0.00300
C544        C  0.58785234  0.15045275  0.86856415    -0.00400
C545        C  0.55412301  0.17957538  0.86055565    -0.13400
C546        C  0.56274337  0.22242235  0.86040172     0.00100
C547        C  0.66631415  0.13592525  0.88557415     0.39400
C548        C  0.52821569  0.25100187  0.84829499     0.36000
C549        C  0.67397455  0.27782736  0.82030968     0.35700
C550        C  0.58481826  0.36698577  0.94511266     0.36500
N551        N  0.69493078  0.11290056  0.89240554    -0.44300
N552        N  0.50092991  0.27407806  0.83800884    -0.44700
N553        N  0.56669926  0.38426143  0.97099068    -0.42100
N554        N  0.69183339  0.26012646  0.79453558    -0.43500
H555        H  0.69628558  0.35130696  0.84960594     0.12600
H556        H  0.56531426  0.29218732  0.91848095     0.09100
H557        H  0.67149960  0.21804188  0.88617760     0.10200
H558        H  0.52141947  0.16878017  0.85289930     0.16000
C559        C  0.90503766  0.58044467  0.79369964    -0.02200
C560        C  0.87573906  0.60321557  0.76877172     0.06400
C561        C  0.83847273  0.62201290  0.78669739    -0.08200
C562        C  0.83020036  0.61821918  0.82831373     0.03800
C563        C  0.85814113  0.59298902  0.85255983    -0.15400
C564        C  0.89583508  0.57518857  0.83478143    -0.08700
C565        C  0.88373325  0.60812879  0.72433911     0.04800
C566        C  0.89194465  0.57266051  0.70051949    -0.09900
C567        C  0.90144243  0.57620735  0.65908306    -0.00300
C568        C  0.90082822  0.61573546  0.64027922    -0.00400
C569        C  0.89127400  0.65099108  0.66377903    -0.13400
C570        C  0.88370172  0.64766842  0.70541449     0.00100
C571        C  0.91115565  0.53881693  0.63659868     0.39400
C572        C  0.87837050  0.68559185  0.72822670     0.36000
C573        C  0.94558481  0.56297054  0.77844160     0.35700
C574        C  0.79357097  0.64145037  0.84511172     0.36500
N575        N  0.91912218  0.50878414  0.61873213    -0.44300
N576        N  0.87418572  0.71599678  0.74649057    -0.44700
N577        N  0.76475370  0.66075300  0.85868756    -0.42100
N578        N  0.97833971  0.54879583  0.76680333    -0.43500
H579        H  0.91854135  0.55709251  0.85311885     0.12600
H580        H  0.81572019  0.63988768  0.76813339     0.09100
H581        H  0.89135333  0.54202529  0.71443744     0.10200
H582        H  0.89151703  0.68165234  0.64986423     0.16000
C583        C  0.92325923  0.60550579  0.18870124    -0.02200
C584        C  0.89160018  0.60424947  0.21993308     0.06400
C585        C  0.84735042  0.59685029  0.21073230    -0.08200
C586        C  0.83430994  0.59010174  0.17086096     0.03800
C587        C  0.86613186  0.59029568  0.13956024    -0.15400
C588        C  0.91042937  0.59792815  0.14882266    -0.08700
C589        C  0.90380033  0.60976893  0.26269277     0.04800
C590        C  0.90401983  0.64988868  0.27862366    -0.09900
C591        C  0.91209534  0.65618796  0.31966620    -0.00300
C592        C  0.91986407  0.62165377  0.34560558    -0.00400
C593        C  0.92143065  0.58151968  0.32908633    -0.13400
C594        C  0.91301127  0.57541954  0.28795045     0.00100
C595        C  0.91384664  0.69860546  0.33360154     0.39400
C596        C  0.91253978  0.53374974  0.27217648     0.36000
C597        C  0.96887769  0.61453367  0.19698116     0.35700
C598        C  0.78860389  0.58069619  0.16331152     0.36500
N599        N  0.91549958  0.73289028  0.34391461    -0.44300
N600        N  0.91163146  0.50065532  0.25874637    -0.44700
N601        N  0.75200507  0.57295828  0.15742046    -0.42100
N602        N  0.00536760  0.62209559  0.20360959    -0.43500
H603        H  0.93493861  0.59814607  0.12485210     0.12600
H604        H  0.82308941  0.59579809  0.23490098     0.09100
H605        H  0.89744711  0.67632421  0.25893017     0.10200
H606        H  0.92783535  0.55485573  0.34850666     0.16000
C607        C  0.84411627  0.36974422  0.79108419    -0.02200
C608        C  0.87673259  0.39053200  0.76833513     0.06400
C609        C  0.90335595  0.41981194  0.78762980    -0.08200
C610        C  0.89862358  0.42811598  0.82887507     0.03800
C611        C  0.86549771  0.40786543  0.85171638    -0.15400
C612        C  0.83878234  0.37854931  0.83226913    -0.08700
C613        C  0.88478331  0.38182687  0.72471663     0.04800
C614        C  0.85060915  0.38762499  0.69657283    -0.09900
C615        C  0.85814900  0.38160069  0.65511363    -0.00300
C616        C  0.90075765  0.37079918  0.64129838    -0.00400
C617        C  0.93480041  0.36492945  0.66931260    -0.13400
C618        C  0.92702190  0.36964582  0.71070827     0.00100
C619        C  0.82219515  0.38804372  0.62725134     0.39400
C620        C  0.96252991  0.36065482  0.73844657     0.36000
C621        C  0.81610132  0.33883981  0.77317854     0.35700
C622        C  0.92892203  0.45700233  0.84668664     0.36500
N623        N  0.79333582  0.39328687  0.60496532    -0.44300
N624        N  0.99051341  0.35352274  0.76117764    -0.44700
N625        N  0.95347054  0.47994725  0.86095196    -0.42100
N626        N  0.79339292  0.31416204  0.75902321    -0.43500
H627        H  0.81324042  0.36256008  0.84914475     0.12600
H628        H  0.92837301  0.43611292  0.77031537     0.09100
H629        H  0.81817479  0.39739036  0.70695369     0.10200
H630        H  0.96741588  0.35569813  0.65884533     0.16000
C631        C  0.85342593  0.42378002  0.21192601    -0.02200
C632        C  0.88887329  0.39788129  0.22413727     0.06400
C633        C  0.91538631  0.37866188  0.19459909    -0.08200
C634        C  0.90676717  0.38470269  0.15336936     0.03800
C635        C  0.87145552  0.41061767  0.14135135    -0.15400
C636        C  0.84512704  0.43003462  0.17075299    -0.08700
C637        C  0.89742469  0.38912303  0.26753994     0.04800
C638        C  0.86562815  0.36752696  0.28997817    -0.09900
C639        C  0.87178604  0.35897784  0.33109713    -0.00300
C640        C  0.91033919  0.37281254  0.35076178    -0.00400
C641        C  0.94224726  0.39428917  0.32806701    -0.13400
C642        C  0.93634346  0.40198679  0.28675768     0.00100
C643        C  0.83773609  0.33615587  0.35202056     0.39400
C644        C  0.97018229  0.42403329  0.26497859     0.36000
C645        C  0.82561491  0.44477065  0.24109228     0.35700
C646        C  0.93366568  0.36317783  0.12394355     0.36500
N647        N  0.81042157  0.31762215  0.36849919    -0.44300
N648        N  0.99694916  0.44225453  0.24753192    -0.44700
N649        N  0.95506207  0.34574161  0.10032589    -0.42100
N650        N  0.80344996  0.46163768  0.26451637    -0.43500
H651        H  0.81803373  0.45016119  0.16147326     0.12600
H652        H  0.94232397  0.35833893  0.20381620     0.09100
H653        H  0.83588607  0.35712853  0.27515113     0.10200
H654        H  0.97231356  0.40456259  0.34240425     0.16000
C655        C  0.32265952  0.70821947  0.85815798    -0.02200
C656        C  0.36214668  0.72166843  0.87635286     0.06400
C657        C  0.38556055  0.69362094  0.90116310    -0.08200
C658        C  0.37067510  0.65302358  0.90788703     0.03800
C659        C  0.33112272  0.63974163  0.88987585    -0.15400
C660        C  0.30795303  0.66750978  0.86463414    -0.08700
C661        C  0.37765033  0.76555813  0.87250514     0.04800
C662        C  0.38527915  0.78882923  0.90769838    -0.09900
C663        C  0.39715114  0.83094104  0.90542075    -0.00300
C664        C  0.39994873  0.85088150  0.86743217    -0.00400
C665        C  0.39438864  0.82712476  0.83231037    -0.13400
C666        C  0.38453705  0.78471958  0.83450636     0.00100
C667        C  0.40472852  0.85321504  0.94244361     0.39400
C668        C  0.38291513  0.76142467  0.79733133     0.36000
C669        C  0.29425647  0.73661099  0.83612682     0.35700
C670        C  0.39407102  0.62750038  0.93692805     0.36500
N671        N  0.41098543  0.87098655  0.97216155    -0.44300
N672        N  0.38165135  0.74289975  0.76746708    -0.44700
N673        N  0.41268077  0.60728405  0.96048473    -0.42100
N674        N  0.27145373  0.75935241  0.81854586    -0.43500
H675        H  0.27651793  0.65824417  0.85218703     0.12600
H676        H  0.41450268  0.70401333  0.91707029     0.09100
H677        H  0.38116019  0.77425900  0.93710208     0.10200
H678        H  0.39835872  0.84164004  0.80285407     0.16000
C679        C  0.40270332  0.31666139  0.89063549    -0.02200
C680        C  0.38228234  0.28988366  0.86261479     0.06400
C681        C  0.34551126  0.30482442  0.84100734    -0.08200
C682        C  0.32685058  0.34388209  0.84946123     0.03800
C683        C  0.34477389  0.36868078  0.88016931    -0.15400
C684        C  0.38396216  0.35576482  0.89897024    -0.08700
C685        C  0.39463551  0.24483898  0.85927075     0.04800
C686        C  0.39467578  0.22019381  0.89448714    -0.09900
C687        C  0.40262589  0.17720028  0.89301883    -0.00300
C688        C  0.40853327  0.15751918  0.85539676    -0.00400
C689        C  0.40841835  0.18196898  0.82001973    -0.13400
C690        C  0.40223757  0.22528340  0.82170245     0.00100
C691        C  0.40252376  0.15383862  0.93041729     0.39400
C692        C  0.40451181  0.24900513  0.78458110     0.36000
C693        C  0.44143198  0.30404024  0.91295398     0.35700
C694        C  0.28802236  0.35715510  0.82759512     0.36500
N695        N  0.40255812  0.13527521  0.96049121    -0.44300
N696        N  0.40636562  0.26807204  0.75485761    -0.44700
N697        N  0.25714107  0.36795219  0.80982510    -0.42100
N698        N  0.47235119  0.29420324  0.93116220    -0.43500
H699        H  0.39776810  0.37455328  0.92285236     0.12600
H700        H  0.32944861  0.28485025  0.81937701     0.09100
H701        H  0.38706929  0.23449144  0.92317772     0.10200
H702        H  0.41381779  0.16725815  0.79097011     0.16000
C703        C  0.40958175  0.68057058  0.10383659    -0.02200
C704        C  0.40006812  0.71711975  0.08145321     0.06400
C705        C  0.37050140  0.71525376  0.04925294    -0.08200
C706        C  0.34791682  0.67868039  0.04090707     0.03800
C707        C  0.35480912  0.64265667  0.06506787    -0.15400
C708        C  0.38699709  0.64351009  0.09543664    -0.08700
C709        C  0.41594189  0.75887181  0.09342059     0.04800
C710        C  0.44352220  0.78131457  0.06717189    -0.09900
C711        C  0.45308752  0.82334324  0.07439644    -0.00300
C712        C  0.43390057  0.84388364  0.10806795    -0.00400
C713        C  0.40803607  0.82055120  0.13502729    -0.13400
C714        C  0.39866688  0.77874189  0.12795300     0.00100
C715        C  0.48186791  0.84441790  0.04628764     0.39400
C716        C  0.36927859  0.75757566  0.15553119     0.36000
C717        C  0.44179254  0.68085836  0.13581451     0.35700
C718        C  0.31720508  0.67947906  0.00763314     0.36500
N719        N  0.50510193  0.86102654  0.02366645    -0.44300
N720        N  0.34570361  0.74073728  0.17768063    -0.44700
N721        N  0.29247377  0.68052203  0.98110802    -0.42100
N722        N  0.46777191  0.68139408  0.16132015    -0.43500
H723        H  0.39314947  0.61589126  0.11360077     0.12600
H724        H  0.36351123  0.74313986  0.03166185     0.09100
H725        H  0.45672404  0.76618108  0.04043269     0.10200
H726        H  0.39470245  0.83514764  0.16182277     0.16000
C727        C  0.37551951  0.20788800  0.12538126    -0.02200
C728        C  0.40504922  0.23423195  0.10439960     0.06400
C729        C  0.44413529  0.21675796  0.08874005    -0.08200
C730        C  0.45322518  0.17401492  0.09201978     0.03800
C731        C  0.42432894  0.14775991  0.11396072    -0.15400
C732        C  0.38567866  0.16544622  0.13049246    -0.08700
C733        C  0.39427137  0.27909226  0.09569671     0.04800
C734        C  0.38210191  0.30607122  0.12732195    -0.09900
C735        C  0.36612573  0.34649280  0.11921739    -0.00300
C736        C  0.36373455  0.36115012  0.07905363    -0.00400
C737        C  0.37911233  0.33545955  0.04777930    -0.13400
C738        C  0.39376600  0.29474266  0.05564592     0.00100
C739        C  0.35010654  0.37158797  0.15229806     0.39400
C740        C  0.40455448  0.26842710  0.02178037     0.36000
C741        C  0.33379308  0.22314196  0.14077708     0.35700
C742        C  0.49166525  0.15820454  0.07112913     0.36500
N743        N  0.33729521  0.39169281  0.17885988    -0.44300
N744        N  0.41366983  0.24653492  0.99536100    -0.44700
N745        N  0.52195540  0.14556779  0.05353474    -0.42100
N746        N  0.30035536  0.23528244  0.15318885    -0.43500
H747        H  0.36278573  0.14592554  0.14704726     0.12600
H748        H  0.46723999  0.23652956  0.07270136     0.09100
H749        H  0.38318636  0.29490178  0.15828155     0.10200
H750        H  0.37606726  0.34598594  0.01668046     0.16000
C751        C  0.07375700  0.56641949  0.70458419    -0.02200
C752        C  0.09000019  0.59688923  0.73089556     0.06400
C753        C  0.10512575  0.63464534  0.71506635    -0.08200
C754        C  0.10376469  0.64264609  0.67351856     0.03800
C755        C  0.08614765  0.61248877  0.64714864    -0.15400
C756        C  0.07135670  0.57464694  0.66323839    -0.08700
C757        C  0.09426562  0.58937012  0.77472415     0.04800
C758        C  0.12847687  0.56328758  0.78807786    -0.09900
C759        C  0.13649275  0.55804580  0.82926469    -0.00300
C760        C  0.10992595  0.57916703  0.85770667    -0.00400
C761        C  0.07507596  0.60468631  0.84457246    -0.13400
C762        C  0.06719208  0.61011583  0.80315658     0.00100
C763        C  0.17232053  0.53101427  0.84179346     0.39400
C764        C  0.03133350  0.63695602  0.79041752     0.36000
C765        C  0.05873593  0.52663329  0.71891544     0.35700
C766        C  0.11991663  0.68232820  0.65949588     0.36500
N767        N  0.20093103  0.50940464  0.85207870    -0.44300
N768        N  0.00251549  0.65832393  0.78012604    -0.44700
N769        N  0.13321644  0.71423005  0.64888794    -0.42100
N770        N  0.04585778  0.49456136  0.72930929    -0.43500
H771        H  0.05796601  0.55119505  0.64338920     0.12600
H772        H  0.11841667  0.65779039  0.73530920     0.09100
H773        H  0.14958304  0.54780602  0.76619950     0.10200
H774        H  0.05446290  0.62061241  0.86655546     0.16000
C775        C  0.08471320  0.57044919  0.29450718    -0.02200
C776        C  0.12141515  0.58826906  0.27507434     0.06400
C777        C  0.15121579  0.61174291  0.29742503    -0.08200
C778        C  0.14443746  0.61842142  0.33874923     0.03800
C779        C  0.10678441  0.60159508  0.35819147    -0.15400
C780        C  0.07784930  0.57694414  0.33572807    -0.08700
C781        C  0.12828674  0.58371160  0.23111926     0.04800
C782        C  0.12242364  0.61856310  0.20591095    -0.09900
C783        C  0.12614714  0.61478456  0.16391807    -0.00300
C784        C  0.13432487  0.57538399  0.14689190    -0.00400
C785        C  0.14085990  0.54071143  0.17215851    -0.13400
C786        C  0.13916265  0.54487764  0.21409326     0.00100
C787        C  0.12044703  0.65135747  0.13888363     0.39400
C788        C  0.15167178  0.50983775  0.23911552     0.36000
C789        C  0.05225576  0.54750144  0.27222757     0.35700
C790        C  0.17664150  0.64278954  0.35996773     0.36500
N791        N  0.11606570  0.68063761  0.11872398    -0.44300
N792        N  0.16303156  0.48224001  0.25922918    -0.44700
N793        N  0.20263483  0.66231179  0.37674084    -0.42100
N794        N  0.02614951  0.52947583  0.25413733    -0.43500
H795        H  0.04865079  0.56408898  0.34988544     0.12600
H796        H  0.17962107  0.62517115  0.28239728     0.09100
H797        H  0.11459466  0.64859228  0.21907976     0.10200
H798        H  0.14890319  0.51064359  0.15912060     0.16000
C799        C  0.13280524  0.35469575  0.79878201    -0.02200
C800        C  0.10661527  0.38112150  0.77452688     0.06400
C801        C  0.08431518  0.41465782  0.79230374    -0.08200
C802        C  0.09034558  0.42449221  0.83287418     0.03800
C803        C  0.11829900  0.39928012  0.85707549    -0.15400
C804        C  0.13836027  0.36388760  0.83972860    -0.08700
C805        C  0.10249795  0.37538979  0.73036445     0.04800
C806        C  0.08259533  0.33932697  0.71575594    -0.09900
C807        C  0.07530999  0.33441362  0.67442006    -0.00300
C808        C  0.08789342  0.36610374  0.64717679    -0.00400
C809        C  0.10810858  0.40198297  0.66154476    -0.13400
C810        C  0.11603255  0.40662605  0.70285618     0.00100
C811        C  0.05368389  0.29720310  0.66073980     0.39400
C812        C  0.13947604  0.44293843  0.71617039     0.36000
C813        C  0.15536215  0.31887621  0.78212633     0.35700
C814        C  0.06915952  0.46187186  0.84757670     0.36500
N815        N  0.03629264  0.26744979  0.64974504    -0.44300
N816        N  0.15848926  0.47193786  0.72675031    -0.44700
N817        N  0.05215137  0.49211297  0.85868331    -0.42100
N818        N  0.17323914  0.29003691  0.76881962    -0.43500
H819        H  0.15952008  0.34389111  0.85788234     0.12600
H820        H  0.06268847  0.43380952  0.77399133     0.09100
H821        H  0.07201121  0.31535910  0.73676952     0.10200
H822        H  0.11848626  0.42593141  0.64041359     0.16000
C823        C  0.16453619  0.38344483  0.21058758    -0.02200
C824        C  0.12158272  0.38522949  0.22707534     0.06400
C825        C  0.08577739  0.39378843  0.20168592    -0.08200
C826        C  0.09222348  0.40191579  0.16054970     0.03800
C827        C  0.13513175  0.39970636  0.14383247    -0.15400
C828        C  0.17090025  0.38991245  0.16909036    -0.08700
C829        C  0.11320106  0.37957659  0.27091077     0.04800
C830        C  0.09701106  0.41336440  0.29341366    -0.09900
C831        C  0.08989987  0.40977808  0.33511372    -0.00300
C832        C  0.09816670  0.37140052  0.35479752    -0.00400
C833        C  0.11357180  0.33739749  0.33196350    -0.13400
C834        C  0.12063828  0.34107613  0.29032677     0.00100
C835        C  0.07558661  0.44627448  0.35698967     0.39400
C836        C  0.13322162  0.30444093  0.26779256     0.36000
C837        C  0.20270426  0.37677864  0.23582754     0.35700
C838        C  0.05411943  0.41247823  0.13641713     0.36500
N839        N  0.06438851  0.47565650  0.37446700    -0.44300
N840        N  0.14291528  0.27502463  0.24966027    -0.44700
N841        N  0.02362136  0.42142132  0.11722950    -0.42100
N842        N  0.23336373  0.37156917  0.25599990    -0.43500
H843        H  0.20398393  0.38901989  0.15677929     0.12600
H844        H  0.05301266  0.39415474  0.21399886     0.09100
H845        H  0.09010811  0.44273809  0.27835936     0.10200
H846        H  0.11890600  0.30740224  0.34641422     0.16000
loop_ 
_geom_bond_atom_site_label_1 
_geom_bond_atom_site_label_2 
_geom_bond_distance 
_geom_bond_site_symmetry_2 
_ccdc_geom_bond_type 
N1            N2   1.329       .  A
N1            N7   1.319       .  A
N1          Mn30   2.244   1_554  S
N2            C9   1.361       .  A
N3            N5   1.317       .  A
N3            N4   1.316       .  A
N3          Mn19   2.195       .  S
N4           C10   1.348       .  A
N5            N6   1.325       .  A
N5          Mn30   2.219       .  S
N6           C10   1.357       .  A
N7            N8   1.315       .  A
N7          Mn19   2.182   1_554  S
N8            C9   1.344       .  A
C9          C736   1.477       .  S
C10         C683   1.475       .  S
N11          N17   1.312       .  A
N11          N12   1.319       .  A
N11         Mn41   2.190   1_556  S
N12          C20   1.354       .  A
N13          N14   1.321       .  A
N13          N15   1.312       .  A
N13         Mn19   2.200   1_554  S
N14          C21   1.355       .  A
N15          N16   1.317       .  A
N15         Mn41   2.177       .  S
N16          C21   1.349       .  A
N17          N18   1.318       .  A
N17         Mn19   2.188       .  S
N18          C20   1.351       .  A
Mn19        Cl43   2.504       .  S
C20         C803   1.482       .  S
C21         C827   1.476       .  S
N22          N23   1.325       .  A
N22          N28   1.319       .  A
N22         Mn30   2.231       .  S
N23          C31   1.359       .  A
N24          N26   1.321       .  A
N24          N25   1.316       .  A
N24         Mn42   2.198   1_554  S
N25          C32   1.346       .  A
N26          N27   1.327       .  A
N26         Mn30   2.226   1_554  S
N27          C32   1.356       .  A
N28          N29   1.314       .  A
N28         Mn42   2.180       .  S
N29          C31   1.344       .  A
Mn30        Cl43   2.584       .  S
C31         C659   1.479       .  S
C32         C707   1.483       .  S
N33          N34   1.318       .  A
N33          N39   1.314       .  A
N33         Mn41   2.185       .  S
N34          C44   1.350       .  A
N35          N36   1.319       .  A
N35          N37   1.312       .  A
N35         Mn42   2.193       .  S
N36          C45   1.351       .  A
N37          N38   1.319       .  A
N37         Mn41   2.182   1_556  S
N38          C45   1.350       .  A
N39          N40   1.320       .  A
N39         Mn42   2.192   1_554  S
N40          C44   1.351       .  A
Mn41        Cl43   2.572   1_554  S
Mn42        Cl43   2.503       .  S
C44         C784   1.466       .  S
C45         C760   1.464       .  S
N46          N47   1.321       .  A
N46          N52   1.314       .  A
N46         Mn75   2.197   1_554  S
N47          C54   1.351       .  A
N48          N50   1.312       .  A
N48          N49   1.320       .  A
N48         Mn64   2.192       .  S
N49          C55   1.353       .  A
N50          N51   1.320       .  A
N50         Mn75   2.197       .  S
N51          C55   1.354       .  A
N52          N53   1.321       .  A
N52         Mn64   2.200   1_554  S
N53          C54   1.351       .  A
C54         C635   1.471       .  S
C55         C611   1.489       .  S
N56          N62   1.319       .  A
N56          N57   1.326       .  A
N56         Mn86   2.232   1_556  S
N57          C65   1.359       .  A
N58          N59   1.313       .  A
N58          N60   1.317       .  A
N58         Mn64   2.183   1_554  S
N59          C66   1.347       .  A
N60          N61   1.326       .  A
N60         Mn86   2.226       .  S
N61          C66   1.359       .  A
N62          N63   1.316       .  A
N62         Mn64   2.193       .  S
N63          C65   1.347       .  A
Mn64        Cl88   2.508       .  S
C65         C539   1.479       .  S
C66         C491   1.481       .  S
N67          N68   1.319       .  A
N67          N73   1.313       .  A
N67         Mn75   2.192       .  S
N68          C76   1.354       .  A
N69          N71   1.313       .  A
N69          N70   1.319       .  A
N69         Mn87   2.194   1_554  S
N70          C77   1.351       .  A
N71          N72   1.320       .  A
N71         Mn75   2.190   1_554  S
N72          C77   1.351       .  A
N73          N74   1.320       .  A
N73         Mn87   2.197       .  S
N74          C76   1.353       .  A
Mn75        Cl88   2.581       .  S
C76         C563   1.487       .  S
C77         C587   1.472       .  S
N78          N79   1.326       .  A
N78          N84   1.318       .  A
N78         Mn86   2.220       .  S
N79          C89   1.358       .  A
N80          N81   1.315       .  A
N80          N82   1.319       .  A
N80         Mn87   2.190       .  S
N81          C90   1.345       .  A
N82          N83   1.327       .  A
N82         Mn86   2.229   1_556  S
N83          C90   1.358       .  A
N84          N85   1.314       .  A
N84         Mn87   2.192   1_554  S
N85          C89   1.346       .  A
Mn86        Cl88   2.584   1_554  S
Mn87        Cl88   2.501       .  S
C89         C467   1.477       .  S
C90         C515   1.476       .  S
N91          N92   1.329       .  A
N91          N97   1.320       .  A
N91        Mn120   2.245   1_545  S
N92          C99   1.362       .  A
N93          N95   1.319       .  A
N93          N94   1.314       .  A
N93        Mn109   2.184       .  S
N94         C100   1.345       .  A
N95          N96   1.329       .  A
N95        Mn120   2.249       .  S
N96         C100   1.363       .  A
N97          N98   1.312       .  A
N97        Mn109   2.183   1_545  S
N98          C99   1.346       .  A
C99         C443   1.493       .  S
C100        C400   1.493       .  S
N101        N107   1.313       .  A
N101        N102   1.322       .  A
N101       Mn131   2.192       .  S
N102        C110   1.351       .  A
N103        N104   1.322       .  A
N103        N105   1.312       .  A
N103       Mn109   2.204   1_545  S
N104        C111   1.355       .  A
N105        N106   1.321       .  A
N105       Mn131   2.198   1_545  S
N106        C111   1.354       .  A
N107        N108   1.321       .  A
N107       Mn109   2.209       .  S
N108        C110   1.355       .  A
Mn109      Cl133   2.498       .  S
C110        C712   1.491       .  S
C111        C731   1.496       .  S
N112        N113   1.329       .  A
N112        N118   1.320       .  A
N112       Mn120   2.241       .  S
N113        C121   1.361       .  A
N114        N116   1.320       .  A
N114        N115   1.314       .  A
N114       Mn132   2.177   1_545  S
N115        C122   1.342       .  A
N116        N117   1.331       .  A
N116       Mn120   2.254   1_545  S
N117        C122   1.362       .  A
N118        N119   1.315       .  A
N118       Mn132   2.189       .  S
N119        C121   1.345       .  A
Mn120      Cl133   2.599       .  S
C121        C376   1.484       .  S
C122        C419   1.483       .  S
N123        N124   1.322       .  A
N123        N129   1.314       .  A
N123       Mn131   2.193   1_545  S
N124        C134   1.352       .  A
N125        N126   1.321       .  A
N125        N127   1.313       .  A
N125       Mn132   2.198       .  S
N126        C135   1.352       .  A
N127        N128   1.322       .  A
N127       Mn131   2.192       .  S
N128        C135   1.350       .  A
N129        N130   1.321       .  A
N129       Mn132   2.204   1_545  S
N130        C134   1.352       .  A
Mn131      Cl133   2.589       .  S
Mn132      Cl133   2.489       .  S
C134        C496   1.482       .  S
C135        C472   1.479       .  S
N136        N137   1.323       .  A
N136        N142   1.313       .  A
N136       Mn165   2.203       .  S
N137        C144   1.353       .  A
N138        N140   1.313       .  A
N138        N139   1.318       .  A
N138       Mn154   2.190       .  S
N139        C145   1.349       .  A
N140        N141   1.325       .  A
N140       Mn165   2.203   1_565  S
N141        C145   1.355       .  A
N142        N143   1.321       .  A
N142       Mn154   2.196   1_545  S
N143        C144   1.352       .  A
C144        C688   1.483       .  S
C145        C664   1.484       .  S
N146        N152   1.319       .  A
N146        N147   1.329       .  A
N146       Mn176   2.246       .  S
N147        C155   1.363       .  A
N148        N149   1.315       .  A
N148        N150   1.319       .  A
N148       Mn154   2.179   1_545  S
N149        C156   1.344       .  A
N150        N151   1.328       .  A
N150       Mn176   2.245   1_545  S
N151        C156   1.360       .  A
N152        N153   1.314       .  A
N152       Mn154   2.181       .  S
N153        C155   1.343       .  A
Mn154      Cl178   2.493       .  S
C155        C304   1.483       .  S
C156        C352   1.477       .  S
N157        N158   1.323       .  A
N157        N163   1.314       .  A
N157       Mn165   2.205   1_565  S
N158        C166   1.354       .  A
N159        N161   1.313       .  A
N159        N160   1.320       .  A
N159       Mn177   2.191   1_545  S
N160        C167   1.350       .  A
N161        N162   1.323       .  A
N161       Mn165   2.203       .  S
N162        C167   1.353       .  A
N163        N164   1.319       .  A
N163       Mn177   2.191       .  S
N164        C166   1.350       .  A
Mn165      Cl178   2.578   1_545  S
C166        C520   1.479       .  S
C167        C544   1.476       .  S
N168        N169   1.325       .  A
N168        N174   1.319       .  A
N168       Mn176   2.228   1_545  S
N169        C179   1.359       .  A
N170        N171   1.313       .  A
N170        N172   1.320       .  A
N170       Mn177   2.178       .  S
N171        C180   1.343       .  A
N172        N173   1.332       .  A
N172       Mn176   2.260       .  S
N173        C180   1.365       .  A
N174        N175   1.313       .  A
N174       Mn177   2.181   1_545  S
N175        C179   1.345       .  A
Mn176      Cl178   2.596       .  S
Mn177      Cl178   2.501       .  S
C179        C328   1.479       .  S
C180        C275   1.497       .  S
N181        N182   1.330       .  A
N181        N187   1.319       .  A
N181       Mn210   2.247       .  S
N182        C189   1.363       .  A
N183        N185   1.320       .  A
N183        N184   1.316       .  A
N183       Mn199   2.188       .  S
N184        C190   1.344       .  A
N185        N186   1.328       .  A
N185       Mn210   2.241       .  S
N186        C190   1.359       .  A
N187        N188   1.311       .  A
N187       Mn199   2.167       .  S
N188        C189   1.340       .  A
C189        C448   1.479       .  S
C190        C347   1.481       .  S
N191        N197   1.313       .  A
N191        N192   1.321       .  A
N191       Mn221   2.197       .  S
N192        C200   1.352       .  A
N193        N194   1.318       .  A
N193        N195   1.312       .  A
N193       Mn199   2.187       .  S
N194        C201   1.351       .  A
N195        N196   1.321       .  A
N195       Mn221   2.191       .  S
N196        C201   1.354       .  A
N197        N198   1.316       .  A
N197       Mn199   2.175       .  S
N198        C200   1.347       .  A
Mn199      Cl223   2.491       .  S
C200        C808   1.463       .  S
C201        C832   1.480       .  S
N202        N203   1.329       .  A
N202        N208   1.321       .  A
N202       Mn210   2.241   1_655  S
N203        C211   1.360       .  A
N204        N206   1.321       .  A
N204        N205   1.316       .  A
N204       Mn222   2.190       .  S
N205        C212   1.344       .  A
N206        N207   1.329       .  A
N206       Mn210   2.245   1_655  S
N207        C212   1.360       .  A
N208        N209   1.310       .  A
N208       Mn222   2.177       .  S
N209        C211   1.341       .  A
Mn210      Cl223   2.593       .  S
C211        C323   1.480       .  S
C212        C424   1.482       .  S
N213        N214   1.321       .  A
N213        N219   1.312       .  A
N213       Mn221   2.199   1_655  S
N214        C224   1.355       .  A
N215        N216   1.321       .  A
N215        N217   1.312       .  A
N215       Mn222   2.195       .  S
N216        C225   1.352       .  A
N217        N218   1.320       .  A
N217       Mn221   2.195   1_655  S
N218        C225   1.352       .  A
N219        N220   1.318       .  A
N219       Mn222   2.184       .  S
N220        C224   1.351       .  A
Mn221      Cl223   2.588       .  S
Mn222      Cl223   2.494   1_655  S
C224        C640   1.484       .  S
C225        C616   1.473       .  S
N226        N227   1.319       .  A
N226        N232   1.310       .  A
N226       Mn255   2.187       .  S
N227        C234   1.355       .  A
N228        N230   1.313       .  A
N228        N229   1.318       .  A
N228       Mn244   2.182       .  S
N229        C235   1.349       .  A
N230        N231   1.318       .  A
N230       Mn255   2.191       .  S
N231        C235   1.353       .  A
N232        N233   1.317       .  A
N232       Mn244   2.179       .  S
N233        C234   1.350       .  A
C234        C779   1.481       .  S
C235        C755   1.476       .  S
N236        N242   1.319       .  A
N236        N237   1.332       .  A
N236       Mn266   2.249       .  S
N237        C245   1.363       .  A
N238        N239   1.312       .  A
N238        N240   1.320       .  A
N238       Mn244   2.178       .  S
N239        C246   1.344       .  A
N240        N241   1.330       .  A
N240       Mn266   2.253       .  S
N241        C246   1.363       .  A
N242        N243   1.311       .  A
N242       Mn244   2.169       .  S
N243        C245   1.341       .  A
Mn244      Cl268   2.486       .  S
C245        C299   1.486       .  S
C246        C395   1.488       .  S
N247        N248   1.323       .  A
N247        N253   1.311       .  A
N247       Mn255   2.200   1_655  S
N248        C256   1.355       .  A
N249        N251   1.314       .  A
N249        N250   1.318       .  A
N249       Mn267   2.188       .  S
N250        C257   1.349       .  A
N251        N252   1.323       .  A
N251       Mn255   2.201   1_655  S
N252        C257   1.354       .  A
N253        N254   1.319       .  A
N253       Mn267   2.187       .  S
N254        C256   1.351       .  A
Mn255      Cl268   2.596       .  S
C256        C568   1.483       .  S
C257        C592   1.479       .  S
N258        N259   1.331       .  A
N258        N264   1.319       .  A
N258       Mn266   2.248   1_655  S
N259        C269   1.362       .  A
N260        N261   1.312       .  A
N260        N262   1.320       .  A
N260       Mn267   2.179       .  S
N261        C270   1.343       .  A
N262        N263   1.331       .  A
N262       Mn266   2.255   1_655  S
N263        C270   1.364       .  A
N264        N265   1.312       .  A
N264       Mn267   2.173       .  S
N265        C269   1.341       .  A
Mn266      Cl268   2.601       .  S
Mn267      Cl268   2.484   1_655  S
C269        C371   1.480       .  S
C270        C280   1.486       .  S
C271        C272   1.417       .  A
C271        C276   1.412       .  A
C271        C285   1.443       .  S
C272        C277   1.503       .  S
C272        C273   1.402       .  A
C273        C274   1.399       .  A
C273        H292   1.085       .  S
C274        C275   1.419       .  A
C274        C286   1.445       .  S
C275        C276   1.406       .  A
C276        H291   1.084       .  S
C277        C278   1.411       .  A
C277        C282   1.414       .  A
C278        C279   1.411       .  A
C278        H293   1.084       .  S
C279        C280   1.412       .  A
C279        C283   1.443       .  S
C280        C281   1.405       .  A
C281        C282   1.398       .  A
C281        H294   1.086       .  S
C282        C284   1.445       .  S
C283        N287   1.157       .  T
C284        N288   1.157       .  T
C285        N290   1.157       .  T
C286        N289   1.157       .  T
C295        C296   1.407       .  A
C295        C300   1.397       .  A
C295        C309   1.445       .  S
C296        C301   1.493       .  S
C296        C297   1.411       .  A
C297        C298   1.410       .  A
C297        H316   1.084       .  S
C298        C299   1.408       .  A
C298        C310   1.442       .  S
C299        C300   1.408       .  A
C300        H315   1.085       .  S
C301        C302   1.406       .  A
C301        C306   1.410       .  A
C302        C303   1.406       .  A
C302        H317   1.085       .  S
C303        C304   1.412       .  A
C303        C307   1.443       .  S
C304        C305   1.406       .  A
C305        C306   1.401       .  A
C305        H318   1.085       .  S
C306        C308   1.444       .  S
C307        N311   1.157       .  T
C308        N312   1.157       .  T
C309        N314   1.157       .  T
C310        N313   1.157       .  T
C319        C320   1.415       .  A
C319        C324   1.407       .  A
C319        C333   1.443       .  S
C320        C325   1.484       .  S
C320        C321   1.396       .  A
C321        C322   1.393       .  A
C321        H340   1.085       .  S
C322        C323   1.419       .  A
C322        C334   1.446       .  S
C323        C324   1.402       .  A
C324        H339   1.084       .  S
C325        C326   1.401       .  A
C325        C330   1.413       .  A
C326        C327   1.397       .  A
C326        H341   1.085       .  S
C327        C328   1.415       .  A
C327        C331   1.446       .  S
C328        C329   1.404       .  A
C329        C330   1.402       .  A
C329        H342   1.084       .  S
C330        C332   1.444       .  S
C331        N335   1.158       .  T
C332        N336   1.157       .  T
C333        N338   1.157       .  T
C334        N337   1.157       .  T
C343        C344   1.416       .  A
C343        C348   1.407       .  A
C343        C357   1.444       .  S
C344        C349   1.501       .  S
C344        C345   1.407       .  A
C345        C346   1.403       .  A
C345        H364   1.085       .  S
C346        C347   1.409       .  A
C346        C358   1.444       .  S
C347        C348   1.405       .  A
C348        H363   1.085       .  S
C349        C350   1.410       .  A
C349        C354   1.415       .  A
C350        C351   1.405       .  A
C350        H365   1.085       .  S
C351        C352   1.408       .  A
C351        C355   1.444       .  S
C352        C353   1.404       .  A
C353        C354   1.404       .  A
C353        H366   1.086       .  S
C354        C356   1.444       .  S
C355        N359   1.157       .  T
C356        N360   1.157       .  T
C357        N362   1.157       .  T
C358        N361   1.157       .  T
C367        C368   1.411       .  A
C367        C372   1.399       .  A
C367        C381   1.444       .  S
C368        C373   1.500       .  S
C368        C369   1.413       .  A
C369        C370   1.409       .  A
C369        H388   1.084       .  S
C370        C371   1.407       .  A
C370        C382   1.443       .  S
C371        C372   1.406       .  A
C372        H387   1.086       .  S
C373        C374   1.409       .  A
C373        C378   1.413       .  A
C374        C375   1.407       .  A
C374        H389   1.084       .  S
C375        C376   1.413       .  A
C375        C379   1.443       .  S
C376        C377   1.404       .  A
C377        C378   1.400       .  A
C377        H390   1.085       .  S
C378        C380   1.444       .  S
C379        N383   1.157       .  T
C380        N384   1.157       .  T
C381        N386   1.157       .  T
C382        N385   1.157       .  T
C391        C392   1.411       .  A
C391        C396   1.397       .  A
C391        C405   1.445       .  S
C392        C397   1.493       .  S
C392        C393   1.408       .  A
C393        C394   1.409       .  A
C393        H412   1.084       .  S
C394        C395   1.413       .  A
C394        C406   1.442       .  S
C395        C396   1.406       .  A
C396        H411   1.085       .  S
C397        C398   1.398       .  A
C397        C402   1.414       .  A
C398        C399   1.396       .  A
C398        H413   1.086       .  S
C399        C400   1.419       .  A
C399        C403   1.442       .  S
C400        C401   1.408       .  A
C401        C402   1.410       .  A
C401        H414   1.084       .  S
C402        C404   1.443       .  S
C403        N407   1.156       .  T
C404        N408   1.157       .  T
C405        N410   1.157       .  T
C406        N409   1.157       .  T
C415        C416   1.417       .  A
C415        C420   1.409       .  A
C415        C429   1.443       .  S
C416        C421   1.497       .  S
C416        C417   1.400       .  A
C417        C418   1.401       .  A
C417        H436   1.085       .  S
C418        C419   1.416       .  A
C418        C430   1.443       .  S
C419        C420   1.402       .  A
C420        H435   1.084       .  S
C421        C422   1.406       .  A
C421        C426   1.414       .  A
C422        C423   1.406       .  A
C422        H437   1.085       .  S
C423        C424   1.413       .  A
C423        C427   1.444       .  S
C424        C425   1.403       .  A
C425        C426   1.404       .  A
C425        H438   1.085       .  S
C426        C428   1.444       .  S
C427        N431   1.157       .  T
C428        N432   1.157       .  T
C429        N434   1.157       .  T
C430        N433   1.156   1_545  T
C439        C440   1.404       .  A
C439        C444   1.394       .  A
C439        C453   1.446       .  S
C440        C445   1.486       .  S
C440        C441   1.407       .  A
C441        C442   1.411       .  A
C441        H460   1.084       .  S
C442        C443   1.415       .  A
C442        C454   1.443       .  S
C443        C444   1.410       .  A
C444        H459   1.084       .  S
C445        C446   1.405       .  A
C445        C450   1.408       .  A
C446        C447   1.408       .  A
C446        H461   1.085       .  S
C447        C448   1.413       .  A
C447        C451   1.443       .  S
C448        C449   1.405       .  A
C449        C450   1.396       .  A
C449        H462   1.086       .  S
C450        C452   1.445       .  S
C451        N455   1.157       .  T
C452        N456   1.157       .  T
C453        N458   1.157       .  T
C454        N457   1.157       .  T
C463        C464   1.413       .  A
C463        C468   1.397       .  A
C463        C477   1.445       .  S
C464        C469   1.489       .  S
C464        C465   1.406       .  A
C465        C466   1.406       .  A
C465        H484   1.085       .  S
C466        C467   1.413       .  A
C466        C478   1.443       .  S
C467        C468   1.402       .  A
C468        H483   1.085       .  S
C469        C470   1.406       .  A
C469        C474   1.410       .  A
C470        C471   1.403       .  A
C470        H485   1.085       .  S
C471        C472   1.410       .  A
C471        C475   1.443       .  S
C472        C473   1.405       .  A
C473        C474   1.400       .  A
C473        H486   1.085       .  S
C474        C476   1.444       .  S
C475        N479   1.157       .  T
C476        N480   1.157       .  T
C477        N482   1.157       .  T
C478        N481   1.157       .  T
C487        C488   1.408       .  A
C487        C492   1.396       .  A
C487        C501   1.445       .  S
C488        C493   1.485       .  S
C488        C489   1.405       .  A
C489        C490   1.405       .  A
C489        H508   1.085       .  S
C490        C491   1.414       .  A
C490        C502   1.443       .  S
C491        C492   1.405       .  A
C492        H507   1.085       .  S
C493        C494   1.400       .  A
C493        C498   1.412       .  A
C494        C495   1.401       .  A
C494        H509   1.085       .  S
C495        C496   1.415       .  A
C495        C499   1.443       .  S
C496        C497   1.402       .  A
C497        C498   1.402       .  A
C497        H510   1.084       .  S
C498        C500   1.445       .  S
C499        N503   1.157       .  T
C500        N504   1.157       .  T
C501        N506   1.157       .  T
C502        N505   1.157       .  T
C511        C512   1.412       .  A
C511        C516   1.404       .  A
C511        C525   1.445       .  S
C512        C517   1.489       .  S
C512        C513   1.404       .  A
C513        C514   1.402       .  A
C513        H532   1.085       .  S
C514        C515   1.409       .  A
C514        C526   1.443       .  S
C515        C516   1.405       .  A
C516        H531   1.084       .  S
C517        C518   1.403       .  A
C517        C522   1.409       .  A
C518        C519   1.401       .  A
C518        H533   1.084       .  S
C519        C520   1.411       .  A
C519        C523   1.444       .  S
C520        C521   1.405       .  A
C521        C522   1.403       .  A
C521        H534   1.085       .  S
C522        C524   1.439       .  S
C523        N527   1.157       .  T
C524        N528   1.155       .  T
C525        N530   1.158       .  T
C526        N529   1.157       .  T
C535        C536   1.412       .  A
C535        C540   1.402       .  A
C535        C549   1.445       .  S
C536        C541   1.491       .  S
C536        C537   1.404       .  A
C537        C538   1.402       .  A
C537        H556   1.084       .  S
C538        C539   1.412       .  A
C538        C550   1.443       .  S
C539        C540   1.405       .  A
C540        H555   1.085       .  S
C541        C542   1.406       .  A
C541        C546   1.412       .  A
C542        C543   1.400       .  A
C542        H557   1.085       .  S
C543        C544   1.408       .  A
C543        C547   1.444       .  S
C544        C545   1.405       .  A
C545        C546   1.404       .  A
C545        H558   1.085       .  S
C546        C548   1.443       .  S
C547        N551   1.157       .  T
C548        N552   1.157       .  T
C549        N554   1.157       .  T
C550        N553   1.157       .  T
C559        C560   1.412       .  A
C559        C564   1.396       .  A
C559        C573   1.438       .  S
C560        C565   1.497       .  S
C560        C561   1.407       .  A
C561        C562   1.403       .  A
C561        H580   1.084       .  S
C562        C563   1.416       .  A
C562        C574   1.443       .  S
C563        C564   1.402       .  A
C564        H579   1.083       .  S
C565        C566   1.409       .  A
C565        C570   1.413       .  A
C566        C567   1.404       .  A
C566        H581   1.085       .  S
C567        C568   1.411       .  A
C567        C571   1.444       .  S
C568        C569   1.405       .  A
C569        C570   1.399       .  A
C569        H582   1.085       .  S
C570        C572   1.444       .  S
C571        N575   1.157       .  T
C572        N576   1.157       .  T
C573        N578   1.154       .  T
C574        N577   1.157       .  T
C583        C584   1.408       .  A
C583        C588   1.401       .  A
C583        C597   1.444       .  S
C584        C589   1.476       .  S
C584        C585   1.400       .  A
C585        C586   1.398       .  A
C585        H604   1.085       .  S
C586        C587   1.412       .  A
C586        C598   1.444       .  S
C587        C588   1.403       .  A
C588        H603   1.085       .  S
C589        C590   1.395       .  A
C589        C594   1.407       .  A
C590        C591   1.397       .  A
C590        H605   1.085       .  S
C591        C592   1.418       .  A
C591        C595   1.443       .  S
C592        C593   1.404       .  A
C593        C594   1.401       .  A
C593        H606   1.085       .  S
C594        C596   1.440       .  S
C595        N599   1.157       .  T
C596        N600   1.155       .  T
C597        N602   1.157   1_655  T
C598        N601   1.157       .  T
C607        C608   1.411       .  A
C607        C612   1.402       .  A
C607        C621   1.444       .  S
C608        C613   1.490       .  S
C608        C609   1.404       .  A
C609        C610   1.399       .  A
C609        H628   1.086       .  S
C610        C611   1.416       .  A
C610        C622   1.442       .  S
C611        C612   1.408       .  A
C612        H627   1.084       .  S
C613        C614   1.407       .  A
C613        C618   1.413       .  A
C614        C615   1.404       .  A
C614        H629   1.085       .  S
C615        C616   1.410       .  A
C615        C619   1.444       .  S
C616        C617   1.401       .  A
C617        C618   1.398       .  A
C617        H630   1.086       .  S
C618        C620   1.444       .  S
C619        N623   1.157       .  T
C620        N624   1.157       .  T
C621        N626   1.157       .  T
C622        N625   1.157       .  T
C631        C632   1.412       .  A
C631        C636   1.400       .  A
C631        C645   1.445       .  S
C632        C637   1.485       .  S
C632        C633   1.405       .  A
C633        C634   1.402       .  A
C633        H652   1.085       .  S
C634        C635   1.408       .  A
C634        C646   1.443       .  S
C635        C636   1.401       .  A
C636        H651   1.085       .  S
C637        C638   1.401       .  A
C637        C642   1.409       .  A
C638        C639   1.399       .  A
C638        H653   1.085       .  S
C639        C640   1.417       .  A
C639        C643   1.444       .  S
C640        C641   1.406       .  A
C641        C642   1.400       .  A
C641        H654   1.085       .  S
C642        C644   1.441       .  S
C643        N647   1.157       .  T
C644        N648   1.156       .  T
C645        N650   1.157       .  T
C646        N649   1.157       .  T
C655        C656   1.415       .  A
C655        C660   1.401       .  A
C655        C669   1.445       .  S
C656        C661   1.495       .  S
C656        C657   1.405       .  A
C657        C658   1.401       .  A
C657        H676   1.082       .  S
C658        C659   1.412       .  A
C658        C670   1.444       .  S
C659        C660   1.404       .  A
C660        H675   1.085       .  S
C661        C662   1.408       .  A
C661        C666   1.412       .  A
C662        C663   1.405       .  A
C662        H677   1.085       .  S
C663        C664   1.410       .  A
C663        C667   1.443       .  S
C664        C665   1.406       .  A
C665        C666   1.399       .  A
C665        H678   1.085       .  S
C666        C668   1.445       .  S
C667        N671   1.157       .  T
C668        N672   1.157       .  T
C669        N674   1.157       .  T
C670        N673   1.157       .  T
C679        C680   1.417       .  A
C679        C684   1.402       .  A
C679        C693   1.444       .  S
C680        C685   1.496       .  S
C680        C681   1.406       .  A
C681        C682   1.401       .  A
C681        H700   1.084       .  S
C682        C683   1.409       .  A
C682        C694   1.444       .  S
C683        C684   1.402       .  A
C684        H699   1.085       .  S
C685        C686   1.405       .  A
C685        C690   1.413       .  A
C686        C687   1.401       .  A
C686        H701   1.080       .  S
C687        C688   1.409       .  A
C687        C691   1.444       .  S
C688        C689   1.406       .  A
C689        C690   1.404       .  A
C689        H702   1.085       .  S
C690        C692   1.444       .  S
C691        N695   1.157       .  T
C692        N696   1.157       .  T
C693        N698   1.157       .  T
C694        N697   1.157       .  T
C703        C704   1.413       .  A
C703        C708   1.409       .  A
C703        C717   1.443       .  S
C704        C709   1.486       .  S
C704        C705   1.397       .  A
C705        C706   1.395       .  A
C705        H724   1.085       .  S
C706        C707   1.417       .  A
C706        C718   1.445       .  S
C707        C708   1.404       .  A
C708        H723   1.084       .  S
C709        C710   1.404       .  A
C709        C714   1.409       .  A
C710        C711   1.406       .  A
C710        H725   1.085       .  S
C711        C712   1.418       .  A
C711        C715   1.443       .  S
C712        C713   1.404       .  A
C713        C714   1.397       .  A
C713        H726   1.080       .  S
C714        C716   1.445       .  S
C715        N719   1.157       .  T
C716        N720   1.157       .  T
C717        N722   1.157       .  T
C718        N721   1.157   1_554  T
C727        C728   1.415       .  A
C727        C732   1.405       .  A
C727        C741   1.444       .  S
C728        C733   1.502       .  S
C728        C729   1.405       .  A
C729        C730   1.402       .  A
C729        H748   1.085       .  S
C730        C731   1.417       .  A
C730        C742   1.442       .  S
C731        C732   1.407       .  A
C732        H747   1.085       .  S
C733        C734   1.408       .  A
C733        C738   1.415       .  A
C734        C735   1.407       .  A
C734        H749   1.084       .  S
C735        C736   1.409       .  A
C735        C739   1.443       .  S
C736        C737   1.403       .  A
C737        C738   1.401       .  A
C737        H750   1.085       .  S
C738        C740   1.442       .  S
C739        N743   1.157       .  T
C740        N744   1.156   1_554  T
C741        N746   1.157       .  T
C742        N745   1.157       .  T
C751        C752   1.408       .  A
C751        C756   1.394       .  A
C751        C765   1.438       .  S
C752        C757   1.475       .  S
C752        C753   1.399       .  A
C753        C754   1.398       .  A
C753        H772   1.085       .  S
C754        C755   1.417       .  A
C754        C766   1.444       .  S
C755        C756   1.401       .  A
C756        H771   1.085       .  S
C757        C758   1.399       .  A
C757        C762   1.412       .  A
C758        C759   1.394       .  A
C758        H773   1.084       .  S
C759        C760   1.409       .  A
C759        C763   1.445       .  S
C760        C761   1.401       .  A
C761        C762   1.402       .  A
C761        H774   1.084       .  S
C762        C764   1.444       .  S
C763        N767   1.157       .  T
C764        N768   1.157       .  T
C765        N770   1.156       .  T
C766        N769   1.157       .  T
C775        C776   1.408       .  A
C775        C780   1.395       .  A
C775        C789   1.443       .  S
C776        C781   1.476       .  S
C776        C777   1.399       .  A
C777        C778   1.399       .  A
C777        H796   1.085       .  S
C778        C779   1.418       .  A
C778        C790   1.444       .  S
C779        C780   1.405       .  A
C780        H795   1.084       .  S
C781        C782   1.403       .  A
C781        C786   1.408       .  A
C782        C783   1.399       .  A
C782        H797   1.085       .  S
C783        C784   1.408       .  A
C783        C787   1.443       .  S
C784        C785   1.402       .  A
C785        C786   1.395       .  A
C785        H798   1.085       .  S
C786        C788   1.443       .  S
C787        N791   1.157       .  T
C788        N792   1.157       .  T
C789        N794   1.156       .  T
C790        N793   1.157       .  T
C799        C800   1.408       .  A
C799        C804   1.399       .  A
C799        C813   1.444       .  S
C800        C805   1.480       .  S
C800        C801   1.398       .  A
C801        C802   1.394       .  A
C801        H820   1.081       .  S
C802        C803   1.415       .  A
C802        C814   1.443       .  S
C803        C804   1.409       .  A
C804        H819   1.085       .  S
C805        C806   1.401       .  A
C805        C810   1.414       .  A
C806        C807   1.396       .  A
C806        H821   1.085       .  S
C807        C808   1.410       .  A
C807        C811   1.445       .  S
C808        C809   1.397       .  A
C809        C810   1.398       .  A
C809        H822   1.085       .  S
C810        C812   1.444       .  S
C811        N815   1.157       .  T
C812        N816   1.157       .  T
C813        N818   1.157       .  T
C814        N817   1.157       .  T
C823        C824   1.411       .  A
C823        C828   1.400       .  A
C823        C837   1.444       .  S
C824        C829   1.482       .  S
C824        C825   1.400       .  A
C825        C826   1.398       .  A
C825        H844   1.072       .  S
C826        C827   1.413       .  A
C826        C838   1.444       .  S
C827        C828   1.404       .  A
C828        H843   1.081       .  S
C829        C830   1.403       .  A
C829        C834   1.408       .  A
C830        C831   1.400       .  A
C830        H845   1.084       .  S
C831        C832   1.412       .  A
C831        C835   1.444       .  S
C832        C833   1.407       .  A
C833        C834   1.398       .  A
C833        H846   1.085       .  S
C834        C836   1.444       .  S
C835        N839   1.157       .  T
C836        N840   1.157       .  T
C837        N842   1.157       .  T
C838        N841   1.157       .  T
