geometry optimzed in LAMMPS
_audit_creation_date              2020-11-30 
_audit_creation_method            'lammps2cif' 
_symmetry_space_group_name_H-M    'P1' 
_symmetry_Int_Tables_number       1 
_symmetry_cell_setting            triclinic 
loop_ 
_symmetry_equiv_pos_as_xyz 
  x,y,z 
_cell_length_a                    21.579549337383988 
_cell_length_b                    24.810506418857788 
_cell_length_c                    45.58533165475705 
_cell_angle_alpha                 90.36739629904648 
_cell_angle_beta                  89.80894132678787 
_cell_angle_gamma                 89.93678645097525 
loop_ 
_atom_site_label 
_atom_site_type_symbol 
_atom_site_fract_x 
_atom_site_fract_y 
_atom_site_fract_z 
_atom_site_charge 
O1          O  0.81835440  0.38513428  0.30109477    -0.81400
O2          O  0.83677506  0.41289184  0.19634461    -0.81420
O3          O  0.83793766  0.29860354  0.26940045    -0.81430
O4          O  0.71138266  0.48912625  0.22904956    -0.81370
O5          O  0.87897942  0.35483499  0.23999407    -0.81500
O6          O  0.77683276  0.48346522  0.26755823    -0.81410
O7          O  0.74473234  0.43318816  0.17984088    -0.81400
O8          O  0.77119974  0.31012752  0.31542724    -0.81440
C9          C  0.81331922  0.34552872  0.31984845     1.08290
C10         C  0.80325279  0.43640375  0.17792696     1.08180
C11         C  0.88542011  0.31603719  0.25668611     1.08310
C12         C  0.74874511  0.51058669  0.24784510     1.08190
O13         O  0.65730958  0.45382016  0.27184695    -0.81400
O14         O  0.78684509  0.26800311  0.22510855    -0.81480
O15         O  0.67395984  0.36263771  0.29889541    -0.81410
O16         O  0.66532086  0.34491555  0.19613309    -0.81390
O17         O  0.75602128  0.32788860  0.17726293    -0.81440
O18         O  0.71748366  0.43528610  0.31884493    -0.81410
O19         O  0.62091822  0.39862859  0.24067197    -0.81370
O20         O  0.71618141  0.27189531  0.26136500    -0.81440
Co21       Co  0.73959398  0.41559102  0.28003366     1.51530
Co22       Co  0.81161989  0.34324476  0.21199305     1.51690
Co23       Co  0.75456937  0.33617581  0.27777769     1.51570
Co24       Co  0.68820407  0.41430644  0.21344713     1.51470
O25         O  0.74995591  0.37881775  0.23991438    -1.43330
C26         C  0.61175316  0.43718136  0.25741497     1.08220
C27         C  0.74737568  0.24555612  0.24230304     1.08310
C28         C  0.67799911  0.39697209  0.32067686     1.08240
C29         C  0.69758729  0.32456465  0.17587171     1.08220
O30         O  0.71519954  0.99847225  0.23487892    -0.81400
O31         O  0.84950807  0.80883294  0.26858743    -0.81420
O32         O  0.83053369  0.89227765  0.30069990    -0.81430
O33         O  0.81102332  0.87406290  0.17955988    -0.81370
O34         O  0.78888772  0.81704136  0.31712081    -0.81500
O35         O  0.77406723  0.95430420  0.18988434    -0.81410
O36         O  0.87624032  0.84433185  0.22716192    -0.81400
O37         O  0.78806009  0.98629050  0.26788293    -0.81440
C38         C  0.75758592  0.01669257  0.25108951     1.08290
C39         C  0.89062425  0.81822383  0.24943345     1.08180
C40         C  0.82763517  0.85496367  0.32086669     1.08310
C41         C  0.80466606  0.92316028  0.17359361     1.08190
O42         O  0.67870890  0.87701086  0.18315575    -0.81400
O43         O  0.68896188  0.86818246  0.30424762    -0.81480
O44         O  0.66028875  0.95086479  0.27288950    -0.81410
O45         O  0.78787080  0.75733545  0.23534636    -0.81390
O46         O  0.72110195  0.77324833  0.27068477    -0.81440
O47         O  0.62654288  0.91086287  0.23379403    -0.81410
O48         O  0.71857173  0.79780354  0.19285200    -0.81370
O49         O  0.73318220  0.94417574  0.31785951    -0.81440
Co50       Co  0.70249094  0.93008395  0.21318823     1.51530
Co51       Co  0.76499639  0.84112492  0.27985298     1.51690
Co52       Co  0.74808946  0.91832710  0.27994366     1.51570
Co53       Co  0.79540209  0.82380208  0.21160763     1.51470
O54         O  0.75229881  0.87842073  0.24007223    -1.43330
C55         C  0.68221505  0.82705232  0.17850225     1.08220
C56         C  0.69798983  0.90521288  0.32425270     1.08310
C57         C  0.61592878  0.94057323  0.25545729     1.08240
C58         C  0.74716591  0.74088288  0.25310691     1.08220
O59         O  0.20295366  0.23468290  0.22678516    -0.81400
O60         O  0.33956483  0.04620300  0.26402542    -0.81420
O61         O  0.31826574  0.13008800  0.29696333    -0.81430
O62         O  0.32476307  0.16434596  0.19294815    -0.81370
O63         O  0.27326762  0.05259950  0.31043416    -0.81500
O64         O  0.23032131  0.17777546  0.17729380    -0.81410
O65         O  0.37743801  0.10353619  0.23415757    -0.81400
O66         O  0.27349027  0.23200411  0.26308617    -0.81440
C67         C  0.24220428  0.25817095  0.24367554     1.08290
C68         C  0.38621734  0.06493759  0.25097319     1.08180
C69         C  0.31418085  0.08898806  0.31490772     1.08310
C70         C  0.28844266  0.18296365  0.17400233     1.08190
O71         O  0.15689197  0.08812832  0.19831303    -0.81400
O72         O  0.17655889  0.10711204  0.29755482    -0.81480
O73         O  0.15741202  0.20255409  0.27235791    -0.81410
O74         O  0.28790333  0.01475866  0.22026974    -0.81390
O75         O  0.21802555  0.01567534  0.25664234    -0.81440
O76         O  0.11481810  0.14710147  0.24328414    -0.81410
O77         O  0.24512905  0.07560447  0.17558676    -0.81370
O78         O  0.22102264  0.18056509  0.31680066    -0.81440
Co79       Co  0.17899451  0.15964798  0.21327147     1.51530
Co80       Co  0.25476782  0.08095836  0.27399010     1.51690
Co81       Co  0.23925316  0.16277800  0.27754339     1.51570
Co82       Co  0.30608594  0.09211524  0.20805137     1.51470
O83         O  0.24582781  0.12570891  0.23755553    -1.43330
C84         C  0.18676989  0.07004852  0.17659548     1.08220
C85         C  0.18288800  0.14121402  0.31951704     1.08310
C86         C  0.10895285  0.18622805  0.26037147     1.08240
C87         C  0.24996326  0.99011583  0.23729307     1.08220
O88         O  0.28335832  0.51129688  0.22979370    -0.81400
O89         O  0.16185179  0.70779417  0.27367339    -0.81420
O90         O  0.17975986  0.61858742  0.30494210    -0.81430
O91         O  0.15734314  0.58927357  0.20267769    -0.81370
O92         O  0.22633882  0.69482542  0.31830872    -0.81500
O93         O  0.24470454  0.56826373  0.18141815    -0.81410
O94         O  0.11992650  0.64996814  0.24591209    -0.81400
O95         O  0.21560096  0.51956905  0.26728053    -0.81440
C96         C  0.24461457  0.49114583  0.24819329     1.08290
C97         C  0.11391407  0.69082132  0.26137098     1.08180
C98         C  0.18835981  0.65731070  0.32446782     1.08310
C99         C  0.18590965  0.56695116  0.18186034     1.08190
O100        O  0.33060222  0.65358934  0.19572366    -0.81400
O101        O  0.31898044  0.63560074  0.30523080    -0.81480
O102        O  0.33858189  0.54780052  0.27296982    -0.81410
O103        O  0.21287272  0.73587777  0.22869209    -0.81390
O104        O  0.28310155  0.73179119  0.26538547    -0.81440
O105        O  0.37722042  0.59799228  0.23961391    -0.81410
O106        O  0.23766838  0.67444111  0.18066419    -0.81370
O107        O  0.27247210  0.56001539  0.31843882    -0.81440
Co108      Co  0.30606887  0.58542140  0.21396260     1.51530
Co109      Co  0.24304302  0.66730149  0.28133957     1.51690
Co110      Co  0.25586355  0.58580871  0.28137173     1.51570
Co111      Co  0.18485781  0.66005721  0.21652784     1.51470
O112        O  0.24867535  0.62514466  0.24262204    -1.43330
C113        C  0.29604676  0.67834250  0.17813757     1.08220
C114        C  0.30991365  0.59757687  0.32485964     1.08310
C115        C  0.38504514  0.56263754  0.25841196     1.08240
C116        C  0.25371291  0.75780388  0.24559657     1.08220
O117        O  0.46599603  0.18114979  0.06493775    -0.81400
O118        O  0.50996990  0.29812083  0.92839482    -0.81420
O119        O  0.46735948  0.35424060  0.01253586    -0.81430
O120        O  0.36787104  0.22362319  0.98741065    -0.81370
O121        O  0.53992254  0.35691519  0.97706883    -0.81500
O122        O  0.40669241  0.16733330  0.01723326    -0.81410
O123        O  0.41628693  0.28201189  0.94478672    -0.81400
O124        O  0.42087000  0.25579557  0.04803711    -0.81440
C125        C  0.42251916  0.21602640  0.06704375     1.08290
C126        C  0.45164254  0.30186108  0.92575224     1.08180
C127        C  0.49994580  0.38050851  0.99376850     1.08310
C128        C  0.35975533  0.18558478  0.00453271     1.08190
O129        O  0.52751112  0.13844718  0.01272946    -0.81400
O130        O  0.62946271  0.26879606  0.99235045    -0.81480
O131        O  0.51702636  0.31021578  0.06694483    -0.81410
O132        O  0.49785337  0.19434611  0.92771417    -0.81390
O133        O  0.58836836  0.21113234  0.94692664    -0.81440
O134        O  0.56488721  0.23553177  0.05133187    -0.81410
O135        O  0.46148199  0.13571188  0.97440931    -0.81370
O136        O  0.58595292  0.32406026  0.02202075    -0.81440
Co137      Co  0.48866576  0.20536950  0.02756649     1.51530
Co138      Co  0.56384671  0.28138286  0.96334933     1.51690
Co139      Co  0.50213109  0.28659294  0.02835074     1.51570
Co140      Co  0.43860634  0.21143185  0.96091159     1.51470
O141        O  0.49903933  0.24629404  0.98929004    -1.43330
C142        C  0.49921780  0.11270929  0.99226558     1.08220
C143        C  0.63468518  0.30684849  0.01004015     1.08310
C144        C  0.55701359  0.27312533  0.07149038     1.08240
C145        C  0.55641262  0.18973917  0.92694644     1.08220
O146        O  0.45735911  0.69085097  0.06886433    -0.81400
O147        O  0.51468378  0.79101628  0.92898433    -0.81420
O148        O  0.46067044  0.85608519  0.00919690    -0.81430
O149        O  0.36908535  0.72160213  0.98735010    -0.81370
O150        O  0.53797071  0.85572692  0.97572533    -0.81500
O151        O  0.40348716  0.67064051  0.02089625    -0.81410
O152        O  0.42035638  0.77380354  0.94377251    -0.81400
O153        O  0.41454953  0.76407156  0.04908042    -0.81440
C154        C  0.41766862  0.72904881  0.07060677     1.08290
C155        C  0.45650565  0.79530241  0.92550287     1.08180
C156        C  0.49503315  0.88017838  0.99040353     1.08310
C157        C  0.35884548  0.68589233  0.00554161     1.08190
O158        O  0.52446574  0.64258481  0.02029540    -0.81400
O159        O  0.62480816  0.76996987  0.99780952    -0.81480
O160        O  0.50700940  0.82308120  0.06572856    -0.81410
O161        O  0.50468382  0.68676966  0.93185381    -0.81390
O162        O  0.59003696  0.70547999  0.95512658    -0.81440
O163        O  0.55514443  0.74563621  0.05520146    -0.81410
O164        O  0.46414703  0.63294887  0.98017320    -0.81370
O165        O  0.57997165  0.83083012  0.02281562    -0.81440
Co166      Co  0.48277743  0.71062863  0.03117241     1.51530
Co167      Co  0.56404429  0.77834298  0.96632246     1.51690
Co168      Co  0.49617506  0.79270195  0.02871668     1.51570
Co169      Co  0.44174423  0.70626326  0.96304001     1.51470
O170        O  0.49684518  0.74648018  0.99167010    -1.43330
C171        C  0.50028273  0.61359536  0.99995137     1.08220
C172        C  0.62955437  0.81186106  0.01269346     1.08310
C173        C  0.54470246  0.78609478  0.07336434     1.08240
C174        C  0.56310851  0.68405757  0.93368041     1.08220
O175        O  0.96606572  0.93445566  0.06391159    -0.81400
O176        O  0.99761114  0.05348392  0.92719899    -0.81420
O177        O  0.95672553  0.10459991  0.01047341    -0.81430
O178        O  0.86531751  0.97284739  0.98883023    -0.81370
O179        O  0.02970091  0.11184219  0.97573018    -0.81500
O180        O  0.90742149  0.91591951  0.01675877    -0.81410
O181        O  0.90874473  0.03313033  0.94720152    -0.81400
O182        O  0.91838631  0.00766498  0.04600827    -0.81440
C183        C  0.92241766  0.96926959  0.06561593     1.08290
C184        C  0.93886552  0.05474944  0.92678095     1.08180
C185        C  0.98848107  0.13299944  0.99276131     1.08310
C186        C  0.85898196  0.93389345  0.00531093     1.08190
O187        O  0.03067581  0.89445316  0.01223284    -0.81400
O188        O  0.12314394  0.02647309  0.98898849    -0.81480
O189        O  0.00843481  0.06738016  0.06376055    -0.81410
O190        O  0.99022480  0.94894464  0.92660602    -0.81390
O191        O  0.08264016  0.96917212  0.94312652    -0.81440
O192        O  0.05997465  0.99340137  0.05070989    -0.81410
O193        O  0.96436879  0.88747424  0.97434050    -0.81370
O194        O  0.08051176  0.08002236  0.01978547    -0.81440
Co195      Co  0.98691959  0.95877636  0.02655786     1.51530
Co196      Co  0.05576184  0.03770903  0.96091446     1.51690
Co197      Co  0.99734018  0.04043566  0.02617488     1.51570
Co198      Co  0.93484310  0.96258511  0.96134549     1.51470
O199        O  0.99581488  0.99892109  0.98797045    -1.43330
C200        C  0.00346337  0.86632500  0.99247751     1.08220
C201        C  0.12897306  0.06424680  0.00689955     1.08310
C202        C  0.04889011  0.03200196  0.06997033     1.08240
C203        C  0.04851660  0.94832224  0.92379996     1.08220
O204        O  0.01401516  0.56777057  0.06655450    -0.81400
O205        O  0.00443072  0.44180394  0.92892499    -0.81420
O206        O  0.02865672  0.39201065  0.01725710    -0.81430
O207        O  0.12803259  0.52111982  0.99405751    -0.81370
O208        O  0.96787863  0.38455453  0.97715021    -0.81500
O209        O  0.08562718  0.57809704  0.02285421    -0.81410
O210        O  0.09095014  0.46223664  0.95036422    -0.81400
O211        O  0.06080786  0.49118002  0.05451607    -0.81440
C212        C  0.05078897  0.52993442  0.07378436     1.08290
C213        C  0.06307635  0.43928035  0.92980521     1.08180
C214        C  0.00413095  0.36419966  0.99655729     1.08310
C215        C  0.13391231  0.56012015  0.01091091     1.08190
O216        O  0.96671504  0.60756561  0.01173147    -0.81400
O217        O  0.86908554  0.46880929  0.98656543    -0.81480
O218        O  0.96179791  0.43789995  0.06698646    -0.81410
O219        O  0.01104525  0.54802963  0.92884607    -0.81390
O220        O  0.91776665  0.52592655  0.94355509    -0.81440
O221        O  0.91987474  0.51238888  0.04793855    -0.81410
O222        O  0.04001650  0.60944841  0.97643764    -0.81370
O223        O  0.90804325  0.41858051  0.01938658    -0.81440
Co224      Co  0.00151847  0.54112994  0.02858709     1.51530
Co225      Co  0.94275174  0.45811796  0.96150207     1.51690
Co226      Co  0.98724436  0.45916292  0.02951440     1.51570
Co227      Co  0.06428155  0.53281371  0.96443833     1.51470
O228        O  0.99929856  0.49797009  0.99031978    -1.43330
C229        C  0.99900318  0.63288544  0.99262311     1.08220
C230        C  0.86121338  0.43338360  0.00537055     1.08310
C231        C  0.92282616  0.47672739  0.06904917     1.08240
C232        C  0.95251513  0.55114667  0.92620447     1.08220
O233        O  0.81431758  0.12938233  0.80068787    -0.81400
O234        O  0.84468947  0.16447962  0.69867605    -0.81420
O235        O  0.83878906  0.04332738  0.76853093    -0.81430
O236        O  0.71702296  0.23799090  0.72642627    -0.81370
O237        O  0.88319852  0.10194514  0.74206463    -0.81500
O238        O  0.78085046  0.22975323  0.76533413    -0.81410
O239        O  0.75612943  0.18321790  0.67817213    -0.81400
O240        O  0.76751178  0.05204335  0.81180893    -0.81440
C241        C  0.80495195  0.08955446  0.81907820     1.08290
C242        C  0.81471282  0.18730571  0.67866201     1.08180
C243        C  0.88816166  0.06186525  0.75816073     1.08310
C244        C  0.75410890  0.25814049  0.74573123     1.08190
O245        O  0.65955317  0.20165599  0.76752118    -0.81400
O246        O  0.79505840  0.01560780  0.72181404    -0.81480
O247        O  0.67390667  0.11002634  0.79590282    -0.81410
O248        O  0.67399913  0.09458852  0.69092652    -0.81390
O249        O  0.76869128  0.07931552  0.67532545    -0.81440
O250        O  0.71706597  0.18447472  0.81461977    -0.81410
O251        O  0.62374815  0.14818918  0.73538305    -0.81370
O252        O  0.71972443  0.01669252  0.75596316    -0.81440
Co253      Co  0.74035288  0.16252816  0.77704652     1.51530
Co254      Co  0.81982223  0.09252967  0.71159731     1.51690
Co255      Co  0.75492275  0.08102804  0.77485260     1.51570
Co256      Co  0.69502573  0.16339773  0.70989477     1.51470
O257        O  0.75344121  0.12542707  0.73763843    -1.43330
C258        C  0.61403784  0.18581991  0.75281481     1.08220
C259        C  0.75368971  0.99139572  0.73723362     1.08310
C260        C  0.67771848  0.14632886  0.81702891     1.08240
C261        C  0.71059834  0.07581824  0.67189177     1.08220
O262        O  0.69180787  0.61554633  0.80700178    -0.81400
O263        O  0.65938346  0.58618117  0.70242777    -0.81420
O264        O  0.66068983  0.70018051  0.77627798    -0.81430
O265        O  0.79246195  0.51585201  0.72847054    -0.81370
O266        O  0.62006744  0.64175985  0.74793407    -0.81500
O267        O  0.73077989  0.51689724  0.76832843    -0.81410
O268        O  0.74998188  0.57240648  0.68249986    -0.81400
O269        O  0.73665283  0.69332432  0.81872230    -0.81440
C270        C  0.69989925  0.65544557  0.82579327     1.08290
C271        C  0.69180962  0.56770734  0.68182264     1.08180
C272        C  0.61265122  0.68014123  0.76511641     1.08310
C273        C  0.75792396  0.49146798  0.74713831     1.08190
O274        O  0.84818066  0.55054278  0.77072723    -0.81400
O275        O  0.70164959  0.73482014  0.73022794    -0.81480
O276        O  0.83185883  0.64231126  0.79952119    -0.81410
O277        O  0.82822915  0.66258056  0.69788647    -0.81390
O278        O  0.73390228  0.67592676  0.68180672    -0.81440
O279        O  0.79461967  0.56621201  0.81878410    -0.81410
O280        O  0.88276804  0.60604352  0.73930062    -0.81370
O281        O  0.77894752  0.73462636  0.76332694    -0.81440
Co282      Co  0.76649195  0.58643808  0.78159805     1.51530
Co283      Co  0.68196304  0.65752746  0.71770858     1.51690
Co284      Co  0.74792331  0.66739082  0.78091415     1.51570
Co285      Co  0.81071875  0.59154094  0.71428284     1.51470
O286        O  0.75009871  0.62485375  0.74293652    -1.43330
C287        C  0.89312485  0.56835509  0.75635942     1.08220
C288        C  0.74384903  0.75909055  0.74514220     1.08310
C289        C  0.83148071  0.60657517  0.82065596     1.08240
C290        C  0.79220243  0.68012890  0.67857070     1.08220
O291        O  0.18319855  0.35773020  0.80133673    -0.81400
O292        O  0.16055898  0.34319911  0.69917107    -0.81420
O293        O  0.16375700  0.45321271  0.77539208    -0.81430
O294        O  0.29132776  0.26533435  0.72308498    -0.81370
O295        O  0.12120402  0.40003418  0.74484475    -0.81500
O296        O  0.22268399  0.26561845  0.76042600    -0.81410
O297        O  0.24986501  0.32649411  0.67830738    -0.81400
O298        O  0.22882332  0.43122430  0.81956353    -0.81440
C299        C  0.19140794  0.39166676  0.82318684     1.08290
C300        C  0.19116905  0.32223996  0.67854217     1.08180
C301        C  0.11584590  0.43862142  0.76214452     1.08310
C302        C  0.25298950  0.24099817  0.74016995     1.08190
O303        O  0.34373491  0.29604100  0.76681033    -0.81400
O304        O  0.21198391  0.48693224  0.73015809    -0.81480
O305        O  0.32480407  0.38004580  0.80030183    -0.81410
O306        O  0.33186717  0.41422904  0.69527044    -0.81390
O307        O  0.23770318  0.43020282  0.68001349    -0.81440
O308        O  0.28070400  0.30261990  0.81409521    -0.81410
O309        O  0.38187948  0.35372720  0.73715504    -0.81370
O310        O  0.28220709  0.48117886  0.76676406    -0.81440
Co311      Co  0.26035502  0.33105496  0.77735518     1.51530
Co312      Co  0.18591553  0.41265803  0.71559500     1.51690
Co313      Co  0.24559988  0.41274512  0.78054626     1.51570
Co314      Co  0.31099753  0.34247280  0.71081640     1.51470
O315        O  0.25086543  0.37580615  0.74039238    -1.43330
C316        C  0.39031120  0.31546068  0.75417758     1.08220
C317        C  0.25195977  0.50843292  0.74761699     1.08310
C318        C  0.32133920  0.33920969  0.81848527     1.08240
C319        C  0.29575862  0.43454479  0.67675093     1.08220
O320        O  0.32607187  0.89014447  0.80139052    -0.81400
O321        O  0.34030652  0.90472182  0.69579861    -0.81420
O322        O  0.34354716  0.79850675  0.77337613    -0.81430
O323        O  0.21909252  0.98439516  0.72443838    -0.81370
O324        O  0.38504502  0.84896243  0.74096106    -0.81500
O325        O  0.28737037  0.98428809  0.76193413    -0.81410
O326        O  0.24758481  0.92006848  0.67834886    -0.81400
O327        O  0.27861465  0.81767426  0.81948585    -0.81440
C328        C  0.31969648  0.85452320  0.82239847     1.08290
C329        C  0.30588146  0.92418006  0.67626703     1.08180
C330        C  0.39087458  0.81203979  0.75909298     1.08310
C331        C  0.25820891  0.00850499  0.74134487     1.08190
O332        O  0.16663187  0.95891908  0.76877854    -0.81400
O333        O  0.29304754  0.76197919  0.72940524    -0.81480
O334        O  0.18103798  0.86982161  0.79955074    -0.81410
O335        O  0.16887752  0.83514866  0.70124888    -0.81390
O336        O  0.25747423  0.81650186  0.68068324    -0.81440
O337        O  0.22646211  0.94537473  0.81584783    -0.81410
O338        O  0.12482994  0.89934075  0.74180966    -0.81370
O339        O  0.22365116  0.76910367  0.76639751    -0.81440
Co340      Co  0.24827800  0.91928389  0.77850403     1.51530
Co341      Co  0.31636418  0.83588456  0.71382451     1.51690
Co342      Co  0.26104795  0.83739451  0.78036333     1.51570
Co343      Co  0.19300117  0.90758412  0.71361385     1.51470
O344        O  0.25588897  0.87488453  0.74089344    -1.43330
C345        C  0.11850795  0.94007744  0.75735282     1.08220
C346        C  0.25363780  0.74116789  0.74725943     1.08310
C347        C  0.18298050  0.91041462  0.81811810     1.08240
C348        C  0.19894603  0.81226638  0.68106999     1.08220
O349        O  0.52341386  0.91161721  0.44168976    -0.81400
O350        O  0.53236543  0.07090767  0.56390697    -0.81420
O351        O  0.62694337  0.03226414  0.47929577    -0.81430
O352        O  0.53867568  0.89791028  0.51943995    -0.81370
O353        O  0.59183965  0.08020084  0.51495654    -0.81500
O354        O  0.46401830  0.87778875  0.48850415    -0.81410
O355        O  0.57937778  0.99767937  0.54702531    -0.81400
O356        O  0.57591792  0.98579546  0.43336344    -0.81440
C357        C  0.56700219  0.93616233  0.42936010     1.08290
C358        C  0.57672094  0.03727167  0.56607513     1.08180
C359        C  0.63675126  0.06589956  0.49898732     1.08310
C360        C  0.50783292  0.86360369  0.50495866     1.08190
O361        O  0.37544900  0.96598380  0.48192311    -0.81400
O362        O  0.46720716  0.11048621  0.51447690    -0.81480
O363        O  0.48084578  0.06424273  0.43196779    -0.81410
O364        O  0.48420345  0.94915685  0.56824693    -0.81390
O365        O  0.43146249  0.01769590  0.55083474    -0.81440
O366        O  0.42982756  0.98788289  0.43000339    -0.81410
O367        O  0.40949134  0.93299043  0.52270581    -0.81370
O368        O  0.53028584  0.11789969  0.47615894    -0.81440
Co369      Co  0.45171369  0.94189642  0.46309059     1.51530
Co370      Co  0.50908665  0.04371125  0.52660379     1.51690
Co371      Co  0.54983988  0.04594569  0.45808601     1.51570
Co372      Co  0.49741441  0.96747954  0.52880860     1.51470
O373        O  0.49988140  0.99997211  0.48760759    -1.43330
C374        C  0.36503104  0.94067900  0.50494836     1.08220
C375        C  0.49401626  0.13877657  0.49510438     1.08310
C376        C  0.44287017  0.03326093  0.41969202     1.08240
C377        C  0.43935122  0.98187234  0.57140151     1.08220
O378        O  0.50449696  0.55091325  0.43014260    -0.81400
O379        O  0.47685948  0.43981915  0.56996287    -0.81420
O380        O  0.37654466  0.47477202  0.49466583    -0.81430
O381        O  0.47223809  0.60726848  0.51312597    -0.81370
O382        O  0.41794196  0.41819831  0.52297138    -0.81500
O383        O  0.54300160  0.60982564  0.47716166    -0.81410
O384        O  0.42942584  0.51203488  0.55117120    -0.81400
O385        O  0.41623975  0.53212495  0.45136649    -0.81440
C386        C  0.44575416  0.55428335  0.43094644     1.08290
C387        C  0.43303118  0.47455309  0.57143595     1.08180
C388        C  0.37011654  0.43516850  0.51063907     1.08310
C389        C  0.50518703  0.63361879  0.49468675     1.08190
O390        O  0.63261376  0.52191660  0.49036337    -0.81400
O391        O  0.54037905  0.39661590  0.51820247    -0.81480
O392        O  0.49625778  0.44576199  0.43060517    -0.81410
O393        O  0.52345540  0.56984269  0.56738011    -0.81390
O394        O  0.57325299  0.49524837  0.55377511    -0.81440
O395        O  0.58864668  0.46444742  0.44667084    -0.81410
O396        O  0.59340057  0.57748738  0.52123176    -0.81370
O397        O  0.47415010  0.38894692  0.48019412    -0.81440
Co398      Co  0.56447926  0.53441500  0.46323512     1.51530
Co399      Co  0.49742145  0.46137765  0.53165875     1.51690
Co400      Co  0.44331331  0.46252295  0.46619773     1.51570
Co401      Co  0.50912526  0.54173285  0.52980211     1.51470
O402        O  0.50514274  0.49909763  0.49195758    -1.43330
C403        C  0.64031358  0.56012206  0.50760342     1.08220
C404        C  0.51354782  0.36861077  0.49838504     1.08310
C405        C  0.55452547  0.44065232  0.42850172     1.08240
C406        C  0.56601916  0.53547219  0.57228366     1.08220
O407        O  0.01208967  0.30079995  0.42672149    -0.81400
O408        O  0.97597742  0.18888793  0.56555209    -0.81420
O409        O  0.87423321  0.22714465  0.48895041    -0.81430
O410        O  0.97121568  0.35954749  0.51148598    -0.81370
O411        O  0.91329451  0.17255377  0.51945691    -0.81500
O412        O  0.04119760  0.36301199  0.47486436    -0.81410
O413        O  0.93102265  0.26363166  0.54877812    -0.81400
O414        O  0.92060162  0.28463730  0.44532436    -0.81440
C415        C  0.95349352  0.30221212  0.42476292     1.08290
C416        C  0.93734608  0.22751006  0.56945991     1.08180
C417        C  0.86617605  0.18888021  0.50611487     1.08310
C418        C  0.00121799  0.38594351  0.49190754     1.08190
O419        O  0.13381026  0.27706651  0.49070009    -0.81400
O420        O  0.03432566  0.14466032  0.51311450    -0.81480
O421        O  0.00326751  0.19635504  0.42852238    -0.81410
O422        O  0.02745566  0.31793634  0.56533891    -0.81390
O423        O  0.07330787  0.24245877  0.54925781    -0.81440
O424        O  0.09423375  0.21706595  0.44618831    -0.81410
O425        O  0.09100812  0.33302698  0.51980390    -0.81370
O426        O  0.96682183  0.14022473  0.47568195    -0.81440
Co427      Co  0.06723478  0.28724554  0.46186568     1.51530
Co428      Co  0.99558914  0.21150779  0.52756021     1.51690
Co429      Co  0.94375744  0.21482562  0.46167503     1.51570
Co430      Co  0.00947182  0.29371954  0.52725964     1.51470
O431        O  0.00442235  0.25141407  0.48885254    -1.43330
C432        C  0.13964901  0.31529649  0.50827434     1.08220
C433        C  0.00534441  0.11793761  0.49333785     1.08310
C434        C  0.06192171  0.19203433  0.42762631     1.08240
C435        C  0.06685150  0.27999986  0.56944611     1.08220
O436        O  0.00605237  0.80374486  0.43218524    -0.81400
O437        O  0.97206731  0.69245471  0.57029773    -0.81420
O438        O  0.86822457  0.72956507  0.49317250    -0.81430
O439        O  0.96819758  0.86146142  0.51702107    -0.81370
O440        O  0.90818574  0.67597133  0.52408737    -0.81500
O441        O  0.03808607  0.86377463  0.47994517    -0.81410
O442        O  0.92529282  0.76597409  0.55360328    -0.81400
O443        O  0.91451893  0.78647507  0.45008068    -0.81440
C444        C  0.94736540  0.80818169  0.43071798     1.08290
C445        C  0.92982835  0.72828960  0.57354090     1.08180
C446        C  0.86097059  0.69246213  0.51091033     1.08310
C447        C  0.99815210  0.88660653  0.49702410     1.08190
O448        O  0.12867889  0.77726123  0.49587416    -0.81400
O449        O  0.02816768  0.64617841  0.51807352    -0.81480
O450        O  0.99560917  0.70000168  0.43232985    -0.81410
O451        O  0.02371507  0.81870160  0.57081790    -0.81390
O452        O  0.06872712  0.74346321  0.55425345    -0.81440
O453        O  0.08438382  0.71568046  0.45324769    -0.81410
O454        O  0.08807500  0.83396690  0.52524103    -0.81370
O455        O  0.96122300  0.64117046  0.48018611    -0.81440
Co456      Co  0.06165914  0.78778564  0.46723516     1.51530
Co457      Co  0.99082423  0.71402491  0.53236311     1.51690
Co458      Co  0.93774345  0.71673014  0.46620449     1.51570
Co459      Co  0.00519111  0.79530206  0.53259402     1.51470
O460        O  0.99836729  0.75390112  0.49384630    -1.43330
C461        C  0.13595595  0.81655612  0.51268250     1.08220
C462        C  0.99974461  0.61933011  0.49812137     1.08310
C463        C  0.05402017  0.69528864  0.43247497     1.08240
C464        C  0.06142849  0.77964951  0.57509783     1.08220
C465        C  0.99784582  0.44599452  0.49197362    -0.07390
C466        C  0.97882545  0.47230576  0.51790730    -0.18510
C467        C  0.98171815  0.52842291  0.52076626     0.09810
C468        C  0.00433770  0.55993974  0.49743540    -0.07310
C469        C  0.02328647  0.53416331  0.47153559    -0.18550
C470        C  0.02041009  0.47797999  0.46850364     0.09840
S471        S  0.95353606  0.55804372  0.55428394    -0.33510
S472        S  0.04464804  0.45008721  0.43379917    -0.33520
H473        H  0.10440658  0.43845311  0.44434134     0.27850
H474        H  0.89889894  0.57630750  0.54083852     0.27850
H475        H  0.96232860  0.44908912  0.53640238     0.18440
H476        H  0.04076510  0.55799278  0.45354041     0.18450
C477        C  0.00683119  0.05841164  0.49323664    -0.07390
C478        C  0.95236232  0.03140226  0.48438855    -0.18510
C479        C  0.94679443  0.97553207  0.48616078     0.09810
C480        C  0.99698523  0.94547022  0.49679520    -0.07310
C481        C  0.05161346  0.97192910  0.50533877    -0.18550
C482        C  0.05727536  0.02786679  0.50363285     0.09840
S483        S  0.87585632  0.94559532  0.47312857    -0.33510
S484        S  0.13056440  0.05692973  0.51402274    -0.33520
H485        H  0.12962215  0.09711038  0.49247216     0.27850
H486        H  0.87709175  0.89986349  0.49102109     0.27850
H487        H  0.91274798  0.05403359  0.47662004     0.18440
H488        H  0.09081726  0.94855175  0.51291437     0.18450
C489        C  0.20002523  0.34400983  0.51136981    -0.07390
C490        C  0.24502324  0.33509557  0.48954543    -0.18510
C491        C  0.29951391  0.36523817  0.48847230     0.09810
C492        C  0.31189886  0.40392773  0.51052613    -0.07310
C493        C  0.26818236  0.41232520  0.53285020    -0.18550
C494        C  0.21226730  0.38312715  0.53354201     0.09840
S495        S  0.35012222  0.35330354  0.45765125    -0.33510
S496        S  0.15795659  0.39688618  0.56288549    -0.33520
H497        H  0.19797303  0.42797724  0.58045055     0.27850
H498        H  0.35862763  0.40822310  0.45151332     0.27850
H499        H  0.23654335  0.30606695  0.47215427     0.18440
H500        H  0.27774088  0.44233744  0.54957391     0.18450
C501        C  0.69985875  0.59006822  0.50867189    -0.07390
C502        C  0.71079613  0.62341531  0.53302235    -0.18510
C503        C  0.76086337  0.65918788  0.53373032     0.09810
C504        C  0.80367528  0.65986055  0.51042939    -0.07310
C505        C  0.79322629  0.62665071  0.48597692    -0.18550
C506        C  0.74167966  0.59247789  0.48459608     0.09840
S507        S  0.76343087  0.70881995  0.56230205    -0.33510
S508        S  0.72973542  0.55674174  0.45059609    -0.33520
H509        H  0.73453896  0.50604413  0.46402937     0.27850
H510        H  0.72974276  0.67886723  0.58304583     0.27850
H511        H  0.67815315  0.62343742  0.55099833     0.18440
H512        H  0.82534007  0.62767349  0.46764397     0.18450
C513        C  0.19617255  0.84700952  0.51314401    -0.07390
C514        C  0.23716964  0.83907530  0.48947268    -0.18510
C515        C  0.29068480  0.87026135  0.48610752     0.09810
C516        C  0.30650702  0.90951242  0.50746745    -0.07310
C517        C  0.26699811  0.91694002  0.53158920    -0.18550
C518        C  0.21179491  0.88709229  0.53437160     0.09840
S519        S  0.33784805  0.85712732  0.45416566    -0.33510
S520        S  0.16436353  0.90164042  0.56582028    -0.33520
H521        H  0.16320961  0.84727219  0.57341352     0.27850
H522        H  0.32660092  0.90824766  0.44209626     0.27850
H523        H  0.22644399  0.80954905  0.47262502     0.18440
H524        H  0.27885348  0.94658721  0.54820976     0.18450
C525        C  0.51696639  0.80549687  0.50787040    -0.07390
C526        C  0.55773861  0.78052987  0.48825936    -0.18510
C527        C  0.55436921  0.72500771  0.48253544     0.09810
C528        C  0.50797588  0.69346413  0.49688536    -0.07310
C529        C  0.46780212  0.71918761  0.51681599    -0.18550
C530        C  0.47200560  0.77429593  0.52241717     0.09840
S531        S  0.60935000  0.69709302  0.45636667    -0.33510
S532        S  0.41718201  0.80340975  0.54768948    -0.33520
H533        H  0.45941370  0.84286625  0.55684122     0.27850
H534        H  0.64396704  0.74415755  0.45131550     0.27850
H535        H  0.59005589  0.80540861  0.47617634     0.18440
H536        H  0.43276781  0.69629858  0.52837838     0.18450
C537        C  0.49268811  0.19806332  0.49635817    -0.07390
C538        C  0.50359990  0.22376936  0.52330284    -0.18510
C539        C  0.51756920  0.27885941  0.52462482     0.09810
C540        C  0.51881836  0.30945557  0.49844083    -0.07310
C541        C  0.50933952  0.28322753  0.47161678    -0.18550
C542        C  0.49575266  0.22862497  0.47037758     0.09840
S543        S  0.53198534  0.30739922  0.56034415    -0.33510
S544        S  0.47956769  0.20086938  0.43490636    -0.33520
H545        H  0.43334999  0.16667709  0.44613165     0.27850
H546        H  0.58923558  0.32975481  0.55197948     0.27850
H547        H  0.50397743  0.20038418  0.54329923     0.18440
H548        H  0.50933942  0.30613059  0.45141986     0.18450
C549        C  0.69633983  0.09542265  0.50019632    -0.07390
C550        C  0.73752930  0.08585205  0.52323915    -0.18510
C551        C  0.79228662  0.11598902  0.52634261     0.09810
C552        C  0.80627629  0.15806875  0.50627824    -0.07310
C553        C  0.76406877  0.16753837  0.48338589    -0.18550
C554        C  0.71053867  0.13630734  0.47982847     0.09840
S555        S  0.84130318  0.09858570  0.55661394    -0.33510
S556        S  0.66152813  0.15145375  0.44902813    -0.33520
H557        H  0.65485888  0.09752372  0.44001231     0.27850
H558        H  0.84433995  0.15202303  0.56628754     0.27850
H559        H  0.72669808  0.05486279  0.53910435     0.18440
H560        H  0.77368068  0.19849938  0.46734740     0.18450
C561        C  0.39613202  0.97115844  0.59617665    -0.07390
C562        C  0.39613997  0.91779416  0.60611967    -0.18510
C563        C  0.36711785  0.90259554  0.63182691     0.09810
C564        C  0.33424102  0.94105131  0.64835208    -0.07310
C565        C  0.32939360  0.99418755  0.63781277    -0.18550
C566        C  0.36114326  0.00994072  0.61203674     0.09840
S567        S  0.37311944  0.83323025  0.64314023    -0.33510
S568        S  0.35796319  0.07966128  0.60158084    -0.33520
H569        H  0.42135368  0.08324987  0.59470123     0.27850
H570        H  0.41331590  0.81463043  0.62093220     0.27850
H571        H  0.42140704  0.88739543  0.59423251     0.18440
H572        H  0.30340082  0.02384632  0.65034174     0.18450
C573        C  0.09436139  0.77686932  0.60362109    -0.07390
C574        C  0.15498659  0.75632600  0.60544755    -0.18510
C575        C  0.18984606  0.76219778  0.63148094     0.09810
C576        C  0.16337875  0.78955937  0.65587948    -0.07310
C577        C  0.10031117  0.80280688  0.65490671    -0.18550
C578        C  0.06583129  0.79692110  0.62946297     0.09840
S579        S  0.26627863  0.73307829  0.63349484    -0.33510
S580        S  0.98557381  0.81711793  0.63098686    -0.33520
H581        H  0.97872703  0.81775524  0.66169481     0.27850
H582        H  0.26854211  0.71295687  0.60459176     0.27850
H583        H  0.17585009  0.73814967  0.58615152     0.18440
H584        H  0.07814230  0.82145137  0.67372743     0.18450
C585        C  0.38626427  0.46797581  0.59503353    -0.07390
C586        C  0.37406790  0.51104310  0.61445702    -0.18510
C587        C  0.34202438  0.50267863  0.64104345     0.09810
C588        C  0.32108236  0.45037280  0.64800961    -0.07310
C589        C  0.32961140  0.40851217  0.62774091    -0.18550
C590        C  0.36242840  0.41626816  0.60168187     0.09840
S591        S  0.33277987  0.55917118  0.66575567    -0.33510
S592        S  0.37625944  0.35837045  0.57825423    -0.33520
H593        H  0.33314627  0.32358183  0.59148859     0.27850
H594        H  0.28209888  0.53845150  0.68145134     0.27850
H595        H  0.39294579  0.55055031  0.60981939     0.18440
H596        H  0.31343049  0.36851267  0.63320747     0.18450
C597        C  0.15798754  0.29933815  0.65264273    -0.07390
C598        C  0.19262204  0.28053198  0.62826345    -0.18510
C599        C  0.16429956  0.26943331  0.60111866     0.09810
C600        C  0.10043194  0.27977199  0.59772934    -0.07310
C601        C  0.06581702  0.29583973  0.62233627    -0.18550
C602        C  0.09272770  0.30353204  0.64969463     0.09840
S603        S  0.21282566  0.24779814  0.57113364    -0.33510
S604        S  0.04008171  0.32121499  0.67907917    -0.33520
H605        H  0.06593836  0.28414711  0.69877961     0.27850
H606        H  0.17497107  0.20366077  0.56385031     0.27850
H607        H  0.24244738  0.27626765  0.62995112     0.18440
H608        H  0.01656530  0.30335775  0.62017794     0.18450
C609        C  0.25110322  0.68182222  0.74785505    -0.07390
C610        C  0.30775971  0.65385285  0.75006603    -0.18510
C611        C  0.31018704  0.59745348  0.74994066     0.09810
C612        C  0.25464663  0.56796289  0.74777168    -0.07310
C613        C  0.19795029  0.59608358  0.74581005    -0.18550
C614        C  0.19559948  0.65243369  0.74564142     0.09840
S615        S  0.38537175  0.56588785  0.75151635    -0.33510
S616        S  0.12087708  0.68408516  0.74156662    -0.33520
H617        H  0.14224623  0.72851647  0.72546481     0.27850
H618        H  0.37029967  0.52228958  0.73300791     0.27850
H619        H  0.35074848  0.67626978  0.75167706     0.18440
H620        H  0.15481189  0.57388523  0.74429137     0.18450
C621        C  0.25243252  0.18149603  0.73896512    -0.07390
C622        C  0.31000987  0.15465040  0.73742530    -0.18510
C623        C  0.31404905  0.09831204  0.73782075     0.09810
C624        C  0.25931416  0.06781746  0.73994504    -0.07310
C625        C  0.20185599  0.09463175  0.74160972    -0.18550
C626        C  0.19773862  0.15083027  0.74094001     0.09840
S627        S  0.38989478  0.06804438  0.73529187    -0.33510
S628        S  0.12153488  0.18063699  0.74200331    -0.33520
H629        H  0.13681908  0.22472356  0.72419533     0.27850
H630        H  0.37071885  0.02101345  0.72054495     0.27850
H631        H  0.35244512  0.17780576  0.73632113     0.18440
H632        H  0.15956057  0.07151022  0.74374320     0.18450
C633        C  0.66189373  0.55588508  0.65366792    -0.07390
C634        C  0.64069128  0.60078137  0.63829785    -0.18510
C635        C  0.61355410  0.59571331  0.61075660     0.09810
C636        C  0.60600962  0.54366412  0.59821510    -0.07310
C637        C  0.62981442  0.49863758  0.61306073    -0.18550
C638        C  0.65755172  0.50420962  0.64077863     0.09840
S639        S  0.58901044  0.65677247  0.59240395    -0.33510
S640        S  0.68347183  0.44399281  0.65892340    -0.33520
H641        H  0.68198216  0.46477678  0.68765697     0.27850
H642        H  0.61784702  0.69392406  0.61137047     0.27850
H643        H  0.64525713  0.64040671  0.64811492     0.18440
H644        H  0.62393735  0.45867028  0.60376119     0.18450
C645        C  0.81942622  0.69405080  0.64992185    -0.07390
C646        C  0.81581749  0.74639363  0.63836483    -0.18510
C647        C  0.84871851  0.76024803  0.61260822     0.09810
C648        C  0.88616847  0.72047374  0.59848075    -0.07310
C649        C  0.88467982  0.66772686  0.60929270    -0.18550
C650        C  0.85232336  0.65411221  0.63429324     0.09840
S651        S  0.83719064  0.82740414  0.59861956    -0.33510
S652        S  0.85534950  0.58467972  0.64567300    -0.33520
H653        H  0.87592333  0.56196831  0.61900897     0.27850
H654        H  0.89688935  0.83536879  0.58743036     0.27850
H655        H  0.78870336  0.77678384  0.64978831     0.18440
H656        H  0.91026233  0.63604461  0.59830577     0.18450
C657        C  0.95333974  0.53982115  0.75728641    -0.07390
C658        C  0.97339781  0.52063162  0.78442496    -0.18510
C659        C  0.02779436  0.49068360  0.78698358     0.09810
C660        C  0.05985141  0.47340631  0.76154789    -0.07310
C661        C  0.03991320  0.49250514  0.73424667    -0.18550
C662        C  0.98821602  0.52642750  0.73190272     0.09840
S663        S  0.05296557  0.47582655  0.82328754    -0.33510
S664        S  0.96829413  0.54900300  0.69579029    -0.33520
H665        H  0.90495456  0.53776501  0.69906609     0.27850
H666        H  0.07172080  0.42497899  0.81397297     0.27850
H667        H  0.94645456  0.52922174  0.80398500     0.18440
H668        H  0.06531564  0.48138069  0.71455432     0.18450
C669        C  0.55362932  0.71079161  0.76453992    -0.07390
C670        C  0.53605989  0.73292825  0.73763286    -0.18510
C671        C  0.48416008  0.76633082  0.73529367     0.09810
C672        C  0.44817196  0.77878587  0.76048994    -0.07310
C673        C  0.46432704  0.75476154  0.78719929    -0.18550
C674        C  0.51685391  0.72146558  0.78951574     0.09840
S675        S  0.46492998  0.78882471  0.69909773    -0.33510
S676        S  0.53462779  0.69118054  0.82402436    -0.33520
H677        H  0.48220984  0.70976016  0.83949282     0.27850
H678        H  0.40251186  0.77320409  0.70142348     0.27850
H679        H  0.56362907  0.72457348  0.71819088     0.18440
H680        H  0.43550632  0.76198749  0.80627449     0.18450
C681        C  0.68534349  0.06228844  0.64293598    -0.07390
C682        C  0.66778378  0.10609519  0.62577937    -0.18510
C683        C  0.63777839  0.09879444  0.59914806     0.09810
C684        C  0.62365643  0.04600160  0.58919723    -0.07310
C685        C  0.64555969  0.00173123  0.60531159    -0.18550
C686        C  0.67589189  0.00935755  0.63231990     0.09840
S687        S  0.61711639  0.15918556  0.57967637    -0.33510
S688        S  0.69835584  0.95046718  0.65268083    -0.33520
H689        H  0.69319404  0.97409448  0.68063942     0.27850
H690        H  0.63788724  0.13953102  0.55256994     0.27850
H691        H  0.67634106  0.14680425  0.63358029     0.18440
H692        H  0.63496402  0.96114231  0.59799810     0.18450
C693        C  0.84824524  0.21167983  0.65336356    -0.07390
C694        C  0.81381455  0.23219479  0.62956553    -0.18510
C695        C  0.84187219  0.24284499  0.60230096     0.09810
C696        C  0.90504853  0.23019000  0.59818780    -0.07310
C697        C  0.93981127  0.21349509  0.62245050    -0.18550
C698        C  0.91326026  0.20631461  0.64996540     0.09840
S699        S  0.79355542  0.26621639  0.57292599    -0.33510
S700        S  0.96565782  0.18748571  0.67895151    -0.33520
H701        H  0.93915162  0.22344472  0.69946937     0.27850
H702        H  0.83360875  0.30867008  0.56546833     0.27850
H703        H  0.76418659  0.23768415  0.63169831     0.18440
H704        H  0.98876320  0.20478763  0.61985518     0.18450
C705        C  0.94788672  0.03143941  0.75975110    -0.07390
C706        C  0.98837228  0.03471128  0.73558669    -0.18510
C707        C  0.04270229  0.00369709  0.73393609     0.09810
C708        C  0.05955754  0.97066521  0.75771085    -0.07310
C709        C  0.01997218  0.96750699  0.78203015    -0.18550
C710        C  0.96373782  0.99608910  0.78293049     0.09840
S711        S  0.08882371  0.00511283  0.70080459    -0.33510
S712        S  0.91472574  0.98537158  0.81422933    -0.33520
H713        H  0.86807528  0.96041483  0.79747388     0.27850
H714        H  0.05617449  0.04661087  0.68671696     0.27850
H715        H  0.97595525  0.05992394  0.71722081     0.18440
H716        H  0.03211432  0.94144545  0.80010154     0.18450
C717        C  0.74670037  0.81825212  0.74297826    -0.07390
C718        C  0.79843285  0.84237847  0.73013283    -0.18510
C719        C  0.80180097  0.89858835  0.72682216     0.09810
C720        C  0.75107039  0.93145871  0.73624362    -0.07310
C721        C  0.69908289  0.90650255  0.74862701    -0.18550
C722        C  0.69675759  0.85077088  0.75249496     0.09840
S723        S  0.87264074  0.92651176  0.71189415    -0.33510
S724        S  0.63190633  0.82266817  0.77206335    -0.33520
H725        H  0.59361182  0.86856843  0.77156576     0.27850
H726        H  0.90555631  0.87789258  0.70850159     0.27850
H727        H  0.83628569  0.81689831  0.72281213     0.18440
H728        H  0.66083854  0.93104967  0.75639841     0.18450
C729        C  0.75854389  0.31716241  0.74728994    -0.07390
C730        C  0.78612001  0.34442480  0.72405412    -0.18510
C731        C  0.78718254  0.40068667  0.72334296     0.09810
C732        C  0.75631767  0.43128957  0.74570948    -0.07310
C733        C  0.72763226  0.40318211  0.76872054    -0.18550
C734        C  0.72920450  0.34672238  0.76995332     0.09840
S735        S  0.83137936  0.42942115  0.69373364    -0.33510
S736        S  0.69289579  0.31286782  0.80042146    -0.33520
H737        H  0.66431275  0.35850002  0.81299611     0.27850
H738        H  0.87899267  0.44566413  0.71287108     0.27850
H739        H  0.80816874  0.32154374  0.70654475     0.18440
H740        H  0.70506926  0.42545861  0.78622878     0.18450
C741        C  0.44934230  0.28533891  0.75385469    -0.07390
C742        C  0.45922113  0.24887276  0.73070163    -0.18510
C743        C  0.51191870  0.21592845  0.72957428     0.09810
C744        C  0.55489709  0.21698138  0.75307785    -0.07310
C745        C  0.54416436  0.25328672  0.77641456    -0.18550
C746        C  0.49353347  0.28868227  0.77648798     0.09840
S747        S  0.52257936  0.17620583  0.69671484    -0.33510
S748        S  0.49089719  0.33921132  0.80496084    -0.33520
H749        H  0.45426561  0.37636894  0.78963826     0.27850
H750        H  0.58203781  0.19711677  0.69105473     0.27850
H751        H  0.42594448  0.24675146  0.71296212     0.18440
H752        H  0.57660054  0.25538554  0.79443850     0.18450
C753        C  0.86687991  0.61215749  0.84825386    -0.07390
C754        C  0.83201497  0.60548221  0.87396009    -0.18510
C755        C  0.85966608  0.59189220  0.90042927     0.09810
C756        C  0.92394242  0.58022707  0.90108421    -0.07310
C757        C  0.96000735  0.59357477  0.87624963    -0.18550
C758        C  0.93209690  0.61191255  0.85024632     0.09840
S759        S  0.80948900  0.58996528  0.93217478    -0.33510
S760        S  0.98152202  0.63426677  0.82088338    -0.33520
H761        H  0.93956503  0.67257707  0.81010692     0.27850
H762        H  0.85416186  0.61039380  0.95171465     0.27850
H763        H  0.78196167  0.60872768  0.87315771     0.18440
H764        H  0.00988337  0.58875539  0.87683523     0.18450
C765        C  0.16125528  0.38702066  0.85251394    -0.07390
C766        C  0.19317658  0.41126568  0.87585791    -0.18510
C767        C  0.16436107  0.42296423  0.90242993     0.09810
C768        C  0.09973008  0.41397039  0.90550806    -0.07310
C769        C  0.06967443  0.38328985  0.88357342    -0.18550
C770        C  0.10137500  0.36630268  0.85806928     0.09840
S771        S  0.21346399  0.45166335  0.93042420    -0.33510
S772        S  0.06199243  0.32160127  0.83306149    -0.33520
H773        H  0.11525749  0.29088517  0.82674337     0.27850
H774        H  0.19352041  0.41516536  0.95200693     0.27850
H775        H  0.24123660  0.42293055  0.87312427     0.18440
H776        H  0.02137217  0.37249292  0.88627097     0.18450
C777        C  0.83697367  0.08558396  0.84765268    -0.07390
C778        C  0.89332036  0.11280418  0.85216820    -0.18510
C779        C  0.92724523  0.10611458  0.87819100     0.09810
C780        C  0.90394703  0.07206603  0.90046691    -0.07310
C781        C  0.84637048  0.04721215  0.89624534    -0.18550
C782        C  0.81316965  0.05276812  0.87051450     0.09840
S783        S  0.99927746  0.14200509  0.88149833    -0.33510
S784        S  0.74290448  0.01306557  0.86881874    -0.33520
H785        H  0.70599933  0.05253020  0.85592517     0.27850
H786        H  0.99144934  0.15222778  0.91156926     0.27850
H787        H  0.91200535  0.13816060  0.83502216     0.18440
H788        H  0.82760744  0.02048648  0.91275860     0.18450
C789        C  0.13484481  0.91912799  0.84074321    -0.07390
C790        C  0.11278645  0.87492151  0.85675492    -0.18510
C791        C  0.08456410  0.88253900  0.88425299     0.09810
C792        C  0.07546304  0.93537821  0.89502302    -0.07310
C793        C  0.09049180  0.97929347  0.87728240    -0.18550
C794        C  0.11953247  0.97189968  0.85017454     0.09840
S795        S  0.06626740  0.82362426  0.90533463    -0.33510
S796        S  0.13658089  0.03031444  0.82795942    -0.33520
H797        H  0.10451045  0.06839020  0.84525678     0.27850
H798        H  0.07586708  0.84765944  0.93294532     0.27850
H799        H  0.12348925  0.83433606  0.84939228     0.18440
H800        H  0.08067151  0.01973916  0.88509193     0.18450
C801        C  0.00880830  0.80638086  0.99250288    -0.07390
C802        C  0.98714193  0.77826600  0.96771923    -0.18510
C803        C  0.98320266  0.72200039  0.96711339     0.09810
C804        C  0.99778945  0.69239028  0.99237105    -0.07310
C805        C  0.02031074  0.71980376  0.01710141    -0.18550
C806        C  0.02666044  0.77602751  0.01742328     0.09840
S807        S  0.95831829  0.68888353  0.93409231    -0.33510
S808        S  0.05605300  0.80576741  0.05067010    -0.33520
H809        H  0.00040946  0.83346224  0.05626855     0.27850
H810        H  0.95463892  0.73480939  0.91625473     0.27850
H811        H  0.97221118  0.80056409  0.94871294     0.18440
H812        H  0.03406538  0.69703189  0.03624143     0.18450
C813        C  0.98610869  0.19275838  0.99408648    -0.07390
C814        C  0.01335027  0.22047568  0.97059906    -0.18510
C815        C  0.02504872  0.27544930  0.97204350     0.09810
C816        C  0.00801849  0.30510129  0.99713933    -0.07310
C817        C  0.98073314  0.27814691  0.02084005    -0.18550
C818        C  0.96931945  0.22253365  0.01962875     0.09840
S819        S  0.06537255  0.30466833  0.94170058    -0.33510
S820        S  0.93499679  0.19265253  0.05167350    -0.33520
H821        H  0.88563925  0.16967855  0.03586611     0.27850
H822        H  0.09758453  0.34241248  0.95901171     0.27850
H823        H  0.02868173  0.19880648  0.95124206     0.18440
H824        H  0.96584019  0.30097001  0.03996982     0.18450
C825        C  0.66729315  0.65944569  0.85453385    -0.07390
C826        C  0.62392133  0.61986131  0.86285824    -0.18510
C827        C  0.58871412  0.62564335  0.88885388     0.09810
C828        C  0.60107136  0.66924207  0.90794343    -0.07310
C829        C  0.64787920  0.70568619  0.90082172    -0.18550
C830        C  0.67927909  0.70277673  0.87435907     0.09840
S831        S  0.52793483  0.57826058  0.89718767    -0.33510
S832        S  0.73130032  0.75835643  0.86762889    -0.33520
H833        H  0.69553972  0.77760948  0.84409816     0.27850
H834        H  0.53754020  0.54426795  0.87277768     0.27850
H835        H  0.61502067  0.58629149  0.84820128     0.18440
H836        H  0.65704126  0.73983132  0.91515175     0.18450
C837        C  0.42810725  0.82177232  0.89933597    -0.07390
C838        C  0.36450811  0.83278610  0.90123648    -0.18510
C839        C  0.33029247  0.84797842  0.87692706     0.09810
C840        C  0.35885959  0.85354278  0.84924241    -0.07310
C841        C  0.42368702  0.84845196  0.84754745    -0.18550
C842        C  0.45859785  0.83203755  0.87218646     0.09840
S843        S  0.24929782  0.85907457  0.88286497    -0.33510
S844        S  0.54053108  0.82230355  0.86695396    -0.33520
H845        H  0.53959768  0.76885103  0.87696741     0.27850
H846        H  0.25200223  0.91042239  0.87012635     0.27850
H847        H  0.34003944  0.82782314  0.92185328     0.18440
H848        H  0.44665547  0.85348864  0.82658141     0.18450
C849        C  0.19181000  0.59193166  0.01041676    -0.07390
C850        C  0.21144219  0.61246363  0.98333232    -0.18510
C851        C  0.26390749  0.64533880  0.98117982     0.09810
C852        C  0.29901278  0.65707773  0.00661667    -0.07310
C853        C  0.28001954  0.63551529  0.03347608    -0.18550
C854        C  0.22665351  0.60411423  0.03567873     0.09840
S855        S  0.28603895  0.66744867  0.94509620    -0.33510
S856        S  0.20817456  0.57829516  0.07102429    -0.33520
H857        H  0.19190197  0.52746418  0.05967126     0.27850
H858        H  0.27880104  0.72235185  0.95228181     0.27850
H859        H  0.18514304  0.60337518  0.96368889     0.18440
H860        H  0.30764143  0.64246605  0.05295029     0.18450
C861        C  0.79944266  0.90432925  0.00697606    -0.07390
C862        C  0.75759415  0.91486550  0.02993251    -0.18510
C863        C  0.70254867  0.88500839  0.03292028     0.09810
C864        C  0.68857236  0.84339024  0.01250677    -0.07310
C865        C  0.73047277  0.83386462  0.98930800    -0.18550
C866        C  0.78499601  0.86400831  0.98619422     0.09840
S867        S  0.65390501  0.90008202  0.06400739    -0.33510
S868        S  0.83475764  0.85177412  0.95492090    -0.33520
H869        H  0.80631070  0.80381176  0.94536482     0.27850
H870        H  0.60594450  0.92090068  0.04658193     0.27850
H871        H  0.76829052  0.94604473  0.04587197     0.18440
H872        H  0.71965747  0.80355334  0.97293026     0.18450
C873        C  0.58743811  0.16567123  0.90054098    -0.07390
C874        C  0.55123873  0.15172355  0.87576558    -0.18510
C875        C  0.57851020  0.14044130  0.84825460     0.09810
C876        C  0.64332335  0.14414730  0.84516805    -0.07310
C877        C  0.67921218  0.15429596  0.87021763    -0.18550
C878        C  0.65282548  0.16375376  0.89762301     0.09840
S879        S  0.52832058  0.12713683  0.81764224    -0.33510
S880        S  0.70666110  0.17562271  0.92713046    -0.33520
H881        H  0.67538348  0.14135303  0.94644767     0.27850
H882        H  0.56481724  0.08499576  0.80623321     0.27850
H883        H  0.50117415  0.15194386  0.87738669     0.18440
H884        H  0.72928846  0.15605033  0.86826978     0.18450
C885        C  0.36376912  0.33247809  0.84348887    -0.07390
C886        C  0.37399405  0.37596989  0.86275502    -0.18510
C887        C  0.40312728  0.36823684  0.88994186     0.09810
C888        C  0.42488320  0.31633503  0.89727334    -0.07310
C889        C  0.41755239  0.27377532  0.87729626    -0.18550
C890        C  0.38676714  0.28088261  0.85073924     0.09840
S891        S  0.40858740  0.42556176  0.91431369    -0.33510
S892        S  0.37811617  0.22368847  0.82618263    -0.33520
H893        H  0.40533297  0.18478365  0.84438359     0.27850
H894        H  0.41876134  0.39718244  0.94038103     0.27850
H895        H  0.35575112  0.41540846  0.85743125     0.18440
H896        H  0.43445355  0.23417365  0.88302315     0.18450
C897        C  0.30013179  0.15601603  0.00527300    -0.07390
C898        C  0.26279558  0.15753434  0.03049441    -0.18510
C899        C  0.20671057  0.12877269  0.03189115     0.09810
C900        C  0.18841900  0.09535622  0.00804844    -0.07310
C901        C  0.22683895  0.09365734  0.98301830    -0.18550
C902        C  0.28148077  0.12407319  0.98119648     0.09840
S903        S  0.16162950  0.13602111  0.06484719    -0.33510
S904        S  0.32717570  0.12179577  0.94789737    -0.33520
H905        H  0.29216471  0.08226282  0.93320188     0.27850
H906        H  0.11163812  0.16048769  0.05030827     0.27850
H907        H  0.27681599  0.18210507  0.04903093     0.18440
H908        H  0.21309780  0.06945205  0.96431221     0.18450
C909        C  0.50700144  0.55449714  0.00038578    -0.07390
C910        C  0.53219305  0.52869863  0.97576857    -0.18510
C911        C  0.52961119  0.47246026  0.97242612     0.10130
C912        C  0.49930388  0.44076946  0.99418134    -0.07310
C913        C  0.47456570  0.46727150  0.01899058    -0.18550
C914        C  0.47840701  0.52330158  0.02228180     0.09840
S915        S  0.56403503  0.44348460  0.93964732    -0.33510
S916        S  0.44310219  0.55365871  0.05409345    -0.33520
H917        H  0.38922987  0.56661436  0.03837105     0.27850
H918        H  0.60010081  0.48841349  0.93185724     0.27850
H919        H  0.55305187  0.55311017  0.95882243     0.18440
H920        H  0.45255516  0.44428503  0.03624876     0.18450
C921        C  0.50073092  0.05327873  0.99138930    -0.07390
C922        C  0.44319216  0.02648962  0.99082300    -0.18510
C923        C  0.43929385  0.97026551  0.98967988     0.09810
C924        C  0.49419737  0.93959253  0.98908023    -0.07310
C925        C  0.55177007  0.96635414  0.98973389    -0.18550
C926        C  0.55572834  0.02260071  0.99106075     0.09840
S927        S  0.36320460  0.94039466  0.98848420    -0.33510
S928        S  0.63214590  0.05188975  0.99216024    -0.33520
H929        H  0.61542071  0.10233553  0.98109729     0.27850
H930        H  0.38041108  0.89637518  0.97061777     0.27850
H931        H  0.40060743  0.04968250  0.99145804     0.18440
H932        H  0.59436278  0.94312505  0.98986029     0.18450
C933        C  0.69278909  0.33865772  0.01145940    -0.07390
C934        C  0.68971517  0.39302172  0.00302781    -0.18510
C935        C  0.74291870  0.42521743  0.00079588     0.09810
C936        C  0.80145796  0.40347722  0.00835570    -0.07310
C937        C  0.80408541  0.34930362  0.01749821    -0.18550
C938        C  0.75119566  0.31643085  0.01844023     0.09840
S939        S  0.73192906  0.49296285  0.98757842    -0.33510
S940        S  0.76306850  0.24668257  0.02818318    -0.33520
H941        H  0.70111335  0.23039198  0.03035717     0.27850
H942        H  0.77708193  0.51709874  0.00539210     0.27850
H943        H  0.64536755  0.41028261  0.99712466     0.18440
H944        H  0.84842849  0.33144628  0.02289130     0.18450
C945        C  0.38185418  0.73280467  0.09845115    -0.07390
C946        C  0.41678574  0.72627590  0.12412793    -0.18510
C947        C  0.38908555  0.71637773  0.15118370     0.09810
C948        C  0.32451979  0.70687005  0.15265101    -0.07310
C949        C  0.28861148  0.71846020  0.12757843    -0.18550
C950        C  0.31662073  0.73346904  0.10082104     0.09840
S951        S  0.43951947  0.71592867  0.18268432    -0.33510
S952        S  0.26713945  0.75050342  0.07060250    -0.33520
H953        H  0.30596869  0.79128097  0.05983205     0.27850
H954        H  0.39528915  0.73891805  0.20179790     0.27850
H955        H  0.46693197  0.72815143  0.12301491     0.18440
H956        H  0.23870866  0.71401947  0.12844503     0.18450
C957        C  0.14895761  0.54891916  0.15602595    -0.07390
C958        C  0.09420670  0.57756513  0.15062575    -0.18510
C959        C  0.05969225  0.56980587  0.12515506     0.09810
C960        C  0.08070321  0.53251284  0.10342513    -0.07310
C961        C  0.13094125  0.49863329  0.11054520    -0.18550
C962        C  0.16630907  0.50759348  0.13613104     0.09840
S963        S  0.98842448  0.60820216  0.12189072    -0.33510
S964        S  0.23244012  0.46523151  0.14246900    -0.33520
H965        H  0.27470866  0.50755341  0.13800983     0.27850
H966        H  0.98312989  0.62447027  0.15142176     0.27850
H967        H  0.07940031  0.60847399  0.16599264     0.18440
H968        H  0.14533813  0.46743906  0.09524846     0.18450
C969        C  0.40905665  0.57504918  0.40597357    -0.07390
C970        C  0.35358475  0.54786888  0.40041144    -0.18510
C971        C  0.31864878  0.55772480  0.37565101     0.09810
C972        C  0.34016710  0.59499179  0.35428661    -0.07310
C973        C  0.39159022  0.62743312  0.36155493    -0.18550
C974        C  0.42694878  0.61715990  0.38694978     0.09840
S975        S  0.24680554  0.52039953  0.37384503    -0.33510
S976        S  0.49386489  0.65855005  0.39375259    -0.33520
H977        H  0.48865619  0.65654432  0.42448274     0.27850
H978        H  0.21173013  0.56513788  0.36537377     0.27850
H979        H  0.33752279  0.51677195  0.41521151     0.18440
H980        H  0.40640624  0.65871833  0.34663695     0.18450
C981        C  0.15675844  0.66003055  0.35354646    -0.07390
C982        C  0.10213208  0.63068968  0.35898721    -0.18510
C983        C  0.06696587  0.63940343  0.38472933     0.09810
C984        C  0.08901041  0.67595155  0.40637339    -0.07310
C985        C  0.14629501  0.70092947  0.40186531    -0.18550
C986        C  0.17983036  0.69411589  0.37622803     0.09840
S987        S  0.99428536  0.60400827  0.38764788    -0.33510
S988        S  0.25091152  0.73252354  0.37476012    -0.33520
H989        H  0.28627459  0.68934195  0.36431497     0.27850
H990        H  0.99031797  0.60462594  0.41829055     0.27850
H991        H  0.08483466  0.60316298  0.34239469     0.18440
H992        H  0.16453731  0.72884464  0.41806463     0.18450
C993        C  0.31424065  0.19502786  0.14479631    -0.07390
C994        C  0.33516726  0.15031321  0.12889209    -0.18510
C995        C  0.36442507  0.15566433  0.10190421     0.09810
C996        C  0.37471227  0.20774229  0.09013010    -0.07310
C997        C  0.34887814  0.25254721  0.10481288    -0.18550
C998        C  0.32044819  0.24693330  0.13252214     0.09840
S999        S  0.38903604  0.09365463  0.08450777    -0.33510
S1000       S  0.29950296  0.30756605  0.15205051    -0.33520
H1001       H  0.30675799  0.28634192  0.18034907     0.27850
H1002       H  0.36843276  0.10858980  0.05666304     0.27850
H1003       H  0.33018731  0.11038399  0.13806083     0.18440
H1004       H  0.35658767  0.29261124  0.09622141     0.18450
C1005       C  0.08248187  0.03772366  0.09818176    -0.07390
C1006       C  0.13839079  0.00989117  0.10256215    -0.18510
C1007       C  0.17354023  0.01819002  0.12807863     0.09810
C1008       C  0.15129473  0.05312693  0.15035924    -0.07310
C1009       C  0.09414046  0.07858430  0.14647081    -0.18550
C1010       C  0.06004830  0.07241347  0.12090192     0.09840
S1011       S  0.24594042  0.98329917  0.13099011    -0.33510
S1012       S  0.99010306  0.11268110  0.11821703    -0.33520
H1013       H  0.98271991  0.12494092  0.14820726     0.27850
H1014       H  0.27990305  0.02919564  0.12295388     0.27850
H1015       H  0.15610541  0.98325418  0.08556913     0.18440
H1016       H  0.07744675  0.10660723  0.16300197     0.18450
C1017       C  0.25069517  0.92989844  0.23772051    -0.07390
C1018       C  0.22267151  0.90436827  0.26180988    -0.18510
C1019       C  0.22718398  0.84870794  0.26586742     0.09810
C1020       C  0.25834233  0.81679264  0.24480917    -0.07310
C1021       C  0.28594729  0.84128372  0.22060876    -0.18550
C1022       C  0.28454543  0.89749051  0.21721984     0.09840
S1023       S  0.19245367  0.81899430  0.29804186    -0.33510
S1024       S  0.32749428  0.92563648  0.18685694    -0.33520
H1025       H  0.35560387  0.87770270  0.17685575     0.27850
H1026       H  0.16352365  0.86580508  0.30902427     0.27850
H1027       H  0.19852728  0.92826060  0.27817189     0.18440
H1028       H  0.30880951  0.81603087  0.20439613     0.18450
C1029       C  0.24395914  0.31832157  0.24303216    -0.07390
C1030       C  0.28111076  0.34516337  0.26371005    -0.18510
C1031       C  0.27853013  0.40110395  0.26718369     0.09810
C1032       C  0.23989967  0.43211495  0.24891264    -0.07310
C1033       C  0.20346799  0.40625279  0.22797549    -0.18550
C1034       C  0.20386384  0.35010435  0.22502484     0.09840
S1035       S  0.32529469  0.43064833  0.29558584    -0.33510
S1036       S  0.14878067  0.32362878  0.19887064    -0.33520
H1037       H  0.19111907  0.29012289  0.18417803     0.27850
H1038       H  0.27518749  0.45982571  0.30735744     0.27850
H1039       H  0.31100998  0.32240964  0.27812961     0.18440
H1040       H  0.17444134  0.43018454  0.21367444     0.18450
C1041       C  0.35764595  0.07901892  0.33882030    -0.07390
C1042       C  0.37080784  0.02478215  0.34462505    -0.18510
C1043       C  0.40067594  0.00937227  0.37002348     0.09810
C1044       C  0.41485717  0.04866731  0.39153078    -0.07310
C1045       C  0.40316177  0.10310926  0.38539055    -0.18550
C1046       C  0.37604498  0.11892110  0.35901431     0.09840
S1047       S  0.42025967  0.93898803  0.37289833    -0.33510
S1048       S  0.36130525  0.18955943  0.35364415    -0.33520
H1049       H  0.38865863  0.19022269  0.32560671     0.27850
H1050       H  0.48100679  0.94969772  0.38228005     0.27850
H1051       H  0.35738937  0.99365021  0.32907663     0.18440
H1052       H  0.41353906  0.13351535  0.40141626     0.18450
C1053       C  0.09278942  0.16324577  0.40250343    -0.07390
C1054       C  0.05696313  0.14718229  0.37805824    -0.18510
C1055       C  0.08478592  0.13236384  0.35117892     0.09810
C1056       C  0.14973361  0.13634001  0.34805540    -0.07310
C1057       C  0.18532997  0.14605773  0.37323226    -0.18550
C1058       C  0.15812770  0.15803690  0.40033700     0.09840
S1059       S  0.03494335  0.11498242  0.32102070    -0.33510
S1060       S  0.21043721  0.16807394  0.43065113    -0.33520
H1061       H  0.17193782  0.14164076  0.45087130     0.27850
H1062       H  0.07237574  0.07206795  0.31122754     0.27850
H1063       H  0.00686470  0.14877128  0.37929966     0.18440
H1064       H  0.23541937  0.14643341  0.37150369     0.18450
C1065       C  0.57599271  0.79101478  0.10210207    -0.07390
C1066       C  0.63042021  0.76145414  0.10727439    -0.18510
C1067       C  0.66417671  0.76851881  0.13326082     0.09810
C1068       C  0.64284398  0.80537226  0.15479436    -0.07310
C1069       C  0.58635734  0.83176232  0.15044216    -0.18550
C1070       C  0.55315903  0.82586940  0.12460690     0.09840
S1071       S  0.73634375  0.73310300  0.13662061    -0.33510
S1072       S  0.48463485  0.86766385  0.12211783    -0.33520
H1073       H  0.44606480  0.82778693  0.11039445     0.27850
H1074       H  0.71534142  0.70619315  0.16170191     0.27850
H1075       H  0.64827318  0.73438500  0.09051681     0.18440
H1076       H  0.56931028  0.85992557  0.16690293     0.18450
C1077       C  0.82813277  0.94069287  0.14493815    -0.07390
C1078       C  0.82584690  0.90200649  0.12242121    -0.18510
C1079       C  0.85341967  0.91117148  0.09545077     0.09810
C1080       C  0.87736198  0.96273576  0.08926116    -0.07310
C1081       C  0.87356974  0.00356479  0.11056856    -0.18550
C1082       C  0.85289173  0.99211929  0.13901292     0.09840
S1083       S  0.86178833  0.85461575  0.07057993    -0.33510
S1084       S  0.86844704  0.04134675  0.16716569    -0.33520
H1085       H  0.88091134  0.00377673  0.18936003     0.27850
H1086       H  0.85971675  0.81436764  0.09218448     0.27850
H1087       H  0.80535174  0.86285703  0.12643614     0.18440
H1088       H  0.89379943  0.04244493  0.10608748     0.18450
C1089       C  0.95125954  0.79047548  0.25148296    -0.07390
C1090       C  0.97500293  0.78028687  0.27947015    -0.18510
C1091       C  0.02794182  0.74878972  0.28337955     0.09810
C1092       C  0.05762006  0.72485271  0.25896583    -0.07310
C1093       C  0.03442991  0.73538267  0.23083252    -0.18550
C1094       C  0.98179804  0.76757156  0.22678220     0.09840
S1095       S  0.05160602  0.73640474  0.32020739    -0.33510
S1096       S  0.95377909  0.77407983  0.18976568    -0.33520
H1097       H  0.89297880  0.75823156  0.19684296     0.27850
H1098       H  0.05321513  0.68085332  0.31436446     0.27850
H1099       H  0.95054876  0.79510204  0.29863644     0.18440
H1100       H  0.05714629  0.71782588  0.21178628     0.18450
C1101       C  0.55750069  0.97307596  0.25574395    -0.07390
C1102       C  0.53647127  0.99344705  0.22876616    -0.18510
C1103       C  0.48236981  0.02458843  0.22666815     0.09810
C1104       C  0.44710971  0.03629287  0.25217980    -0.07310
C1105       C  0.46850471  0.01652190  0.27915041    -0.18550
C1106       C  0.52332768  0.98605136  0.28128792     0.09840
S1107       S  0.46017362  0.04624818  0.19049298    -0.33510
S1108       S  0.54544558  0.96255064  0.31687621    -0.33520
H1109       H  0.60158147  0.99119241  0.31667954     0.27850
H1110       H  0.39734291  0.03290854  0.19377172     0.27850
H1111       H  0.56253303  0.98494033  0.20889460     0.18440
H1112       H  0.44274773  0.02550215  0.29881355     0.18450
C1113       C  0.67135355  0.90275415  0.35410540    -0.07390
C1114       C  0.62056238  0.86887471  0.35988478    -0.18510
C1115       C  0.58911069  0.87179944  0.38687983     0.09810
C1116       C  0.60906599  0.90942214  0.40822999    -0.07310
C1117       C  0.66603342  0.93508829  0.40431234    -0.18550
C1118       C  0.69615113  0.93423352  0.37751274     0.09840
S1119       S  0.52271300  0.82907371  0.39210996    -0.33510
S1120       S  0.76150447  0.97973690  0.37516526    -0.33520
H1121       H  0.80066685  0.94502071  0.35964558     0.27850
H1122       H  0.53661168  0.81788666  0.42158904     0.27850
H1123       H  0.60318616  0.84230189  0.34285704     0.18440
H1124       H  0.68365396  0.96167778  0.42134128     0.18450
C1125       C  0.91629419  0.83258743  0.40459282    -0.07390
C1126       C  0.95208603  0.85277073  0.38101563    -0.18510
C1127       C  0.92480941  0.86624559  0.35384927     0.09810
C1128       C  0.86123616  0.85558454  0.34937586    -0.07310
C1129       C  0.82546976  0.83941745  0.37351293    -0.18550
C1130       C  0.85101636  0.82994594  0.40090925     0.09840
S1131       S  0.97351698  0.89467712  0.32587923    -0.33510
S1132       S  0.79604380  0.81231037  0.42924350    -0.33520
H1133       H  0.82251779  0.84643148  0.45041549     0.27850
H1134       H  0.92966864  0.93323311  0.31716794     0.27850
H1135       H  0.00174556  0.85706463  0.38348291     0.18440
H1136       H  0.77597169  0.83360556  0.37096552     0.18450
C1137       C  0.66490276  0.30235506  0.14957460    -0.07390
C1138       C  0.59999298  0.30552096  0.14991497    -0.18510
C1139       C  0.56484057  0.29340864  0.12532952     0.09810
C1140       C  0.59366168  0.27626724  0.09901151    -0.07310
C1141       C  0.65817290  0.26904386  0.09889668    -0.18550
C1142       C  0.69424587  0.28272287  0.12361801     0.09840
S1143       S  0.48250523  0.30026784  0.12932857    -0.33510
S1144       S  0.77697002  0.27657931  0.11992025    -0.33520
H1145       H  0.78674612  0.33233745  0.12345411     0.27850
H1146       H  0.47409196  0.24574563  0.12198306     0.27850
H1147       H  0.57555724  0.31920893  0.16939162     0.18440
H1148       H  0.68096633  0.25595079  0.07899551     0.18450
C1149       C  0.83239083  0.46180370  0.15190258    -0.07390
C1150       C  0.79594254  0.47025767  0.12670308    -0.18510
C1151       C  0.82318917  0.48103131  0.09937689     0.09810
C1152       C  0.88821535  0.48168035  0.09689494    -0.07310
C1153       C  0.92395625  0.47782477  0.12241515    -0.18550
C1154       C  0.89718046  0.46983491  0.14982983     0.09840
S1155       S  0.77303377  0.48826681  0.06837836    -0.33510
S1156       S  0.94958116  0.46789346  0.18061103    -0.33520
H1157       H  0.90847222  0.49267683  0.20050065     0.27850
H1158       H  0.80700633  0.53111063  0.05638953     0.27850
H1159       H  0.74608974  0.46550886  0.12783484     0.18440
H1160       H  0.97398329  0.47891460  0.12086104     0.18450
C1161       C  0.94374596  0.28503686  0.25710512    -0.07390
C1162       C  0.98358875  0.29030554  0.28103433    -0.18510
C1163       C  0.03768179  0.25912076  0.28303175     0.09810
C1164       C  0.05059367  0.21869274  0.26147396    -0.07310
C1165       C  0.00981822  0.21371361  0.23764967    -0.18550
C1166       C  0.95852135  0.24761522  0.23466028     0.09840
S1167       S  0.08810559  0.27499365  0.31317805    -0.33510
S1168       S  0.91495951  0.24175790  0.20117882    -0.33520
H1169       H  0.91006645  0.29757242  0.19672598     0.27850
H1170       H  0.09852897  0.22117437  0.31967106     0.27850
H1171       H  0.97290935  0.31952991  0.29811112     0.18440
H1172       H  0.01972729  0.18510728  0.22018249     0.18450
C1173       C  0.75057045  0.56967975  0.24938349    -0.07390
C1174       C  0.74064995  0.59510415  0.27670369    -0.18510
C1175       C  0.73279875  0.65111817  0.27879856     0.09810
C1176       C  0.73623823  0.68236339  0.25310219    -0.07310
C1177       C  0.74378120  0.65630977  0.22591794    -0.18550
C1178       C  0.75162317  0.60099536  0.22379687     0.09840
S1179       S  0.72139657  0.68029246  0.31464765    -0.33510
S1180       S  0.76761013  0.57348459  0.18800819    -0.33520
H1181       H  0.81402802  0.53941452  0.19876105     0.27850
H1182       H  0.66968212  0.71089976  0.30608040     0.27850
H1183       H  0.73736443  0.57107380  0.29642313     0.18440
H1184       H  0.74778599  0.67982623  0.20613819     0.18450
C1185       C  0.76506011  0.07513814  0.25062635    -0.07390
C1186       C  0.76767196  0.09887149  0.22280946    -0.18510
C1187       C  0.75965073  0.15414875  0.21915224     0.09810
C1188       C  0.74808739  0.18661857  0.24400979    -0.07310
C1189       C  0.74585139  0.16300923  0.27197465    -0.18550
C1190       C  0.75340513  0.10757700  0.27546892     0.09840
S1191       S  0.76002393  0.18186396  0.18255578    -0.33510
S1192       S  0.74237359  0.08019482  0.31155196    -0.33520
H1193       H  0.69848457  0.04214373  0.30210604     0.27850
H1194       H  0.77542775  0.13411396  0.16745001     0.27850
H1195       H  0.77211857  0.07325406  0.20368605     0.18440
H1196       H  0.73810466  0.18786260  0.29128876     0.18450
C1197       C  0.55279588  0.46765659  0.25710626    -0.07390
C1198       C  0.53466282  0.49431426  0.28281305    -0.18510
C1199       C  0.48085905  0.52542230  0.28388942     0.09810
C1200       C  0.44370590  0.53137639  0.25873928    -0.07310
C1201       C  0.46225097  0.50535161  0.23273241    -0.18550
C1202       C  0.51638055  0.47409208  0.23151464     0.09840
S1203       S  0.46505154  0.55869728  0.31768079    -0.33510
S1204       S  0.53815441  0.44679064  0.19623108    -0.33520
H1205       H  0.59967119  0.46517013  0.19799516     0.27850
H1206       H  0.44433519  0.60616816  0.30416894     0.27850
H1207       H  0.56307802  0.49126785  0.30231191     0.18440
H1208       H  0.43454177  0.50976505  0.21309549     0.18450
C1209       C  0.64216160  0.39187767  0.34827635    -0.07390
C1210       C  0.67651111  0.39450057  0.37429727    -0.18510
C1211       C  0.64787616  0.40250863  0.40145927     0.09810
C1212       C  0.58339336  0.41299093  0.40271612    -0.07310
C1213       C  0.54815695  0.40433535  0.37710503    -0.18550
C1214       C  0.57684002  0.39179351  0.35013444     0.09840
S1215       S  0.69671774  0.39927725  0.43343510    -0.33510
S1216       S  0.52799467  0.37872399  0.31903022    -0.33520
H1217       H  0.56474131  0.33648598  0.30791009     0.27850
H1218       H  0.65059588  0.37694897  0.45157866     0.27850
H1219       H  0.72662933  0.39131066  0.37337673     0.18440
H1220       H  0.49830987  0.40950605  0.37773935     0.18450
C1221       C  0.85633823  0.33667363  0.34480714    -0.07390
C1222       C  0.85500024  0.28513800  0.35741918    -0.18510
C1223       C  0.88635442  0.27359913  0.38321853     0.09810
C1224       C  0.92309745  0.31374475  0.39657243    -0.07310
C1225       C  0.92861442  0.36432649  0.38316422    -0.18550
C1226       C  0.89444750  0.37668093  0.35779095     0.09840
S1227       S  0.87804053  0.20705760  0.39889480    -0.33510
S1228       S  0.89881651  0.44452850  0.34429594    -0.33520
H1229       H  0.83411351  0.45128089  0.34360012     0.27850
H1230       H  0.84026003  0.18435438  0.37699388     0.27850
H1231       H  0.82749523  0.25355538  0.34747857     0.18440
H1232       H  0.95690843  0.39515422  0.39332257     0.18450
loop_ 
_geom_bond_atom_site_label_1 
_geom_bond_atom_site_label_2 
_geom_bond_distance 
_geom_bond_site_symmetry_2 
_ccdc_geom_bond_type 
O1            C9   1.311       .  A
O1          Co21   2.097       .  S
O2           C10   1.256       .  A
O2          Co22   1.951       .  S
O3           C11   1.254       .  A
O3          Co23   2.059       .  S
O4           C12   1.291       .  A
O4          Co24   2.047       .  S
O5           C11   1.239       .  A
O5          Co22   1.958       .  S
O6           C12   1.280       .  A
O6          Co21   1.954       .  S
O7           C10   1.268       .  A
O7          Co24   2.013       .  S
O8            C9   1.280       .  A
O8          Co23   1.873       .  S
C9         C1221   1.488       .  S
C10        C1149   1.485       .  S
C11        C1161   1.475       .  S
C12        C1173   1.468       .  S
O13          C26   1.254       .  A
O13         Co21   2.049       .  S
O14          C27   1.285       .  A
O14         Co22   2.035       .  S
O15          C28   1.307       .  A
O15         Co23   2.089       .  S
O16          C29   1.258       .  A
O16         Co24   1.954       .  S
O17          C29   1.266       .  A
O17         Co22   2.024       .  S
O18          C28   1.280       .  A
O18         Co21   1.892       .  S
O19          C26   1.235       .  A
O19         Co24   1.948       .  S
O20          C27   1.274       .  A
O20         Co23   1.945       .  S
Co21         O25   2.050       .  S
Co22         O25   2.035       .  S
Co23         O25   2.033       .  S
Co24         O25   2.007       .  S
C26        C1197   1.479       .  S
C27        C1188   1.465       .  S
C28        C1209   1.481       .  S
C29        C1137   1.495       .  S
O30          C38   1.260   1_565  A
O30         Co50   1.978       .  S
O31          C39   1.266       .  A
O31         Co51   2.053       .  S
O32          C40   1.310       .  A
O32         Co52   2.120       .  S
O33          C41   1.257       .  A
O33         Co53   1.955       .  S
O34          C40   1.271       .  A
O34         Co51   1.878       .  S
O35          C41   1.254       .  A
O35         Co50   1.968       .  S
O36          C39   1.248       .  A
O36         Co53   1.952       .  S
O37          C38   1.264   1_565  A
O37         Co52   1.975       .  S
C38        C1185   1.459       .  S
C39        C1089   1.481       .  S
C40        C1128   1.490       .  S
C41        C1077   1.468       .  S
O42          C55   1.258       .  A
O42         Co50   1.963       .  S
O43          C56   1.306       .  A
O43         Co51   2.087       .  S
O44          C57   1.271       .  A
O44         Co52   2.085       .  S
O45          C58   1.263       .  A
O45         Co53   1.985       .  S
O46          C58   1.261       .  A
O46         Co51   1.976       .  S
O47          C57   1.249       .  A
O47         Co50   1.948       .  S
O48          C55   1.256       .  A
O48         Co53   1.975       .  S
O49          C56   1.265       .  A
O49         Co52   1.866       .  S
Co50         O54   2.080       .  S
Co51         O54   2.060       .  S
Co52         O54   2.066       .  S
Co53         O54   2.086       .  S
C55        C1068   1.476       .  S
C56        C1113   1.477       .  S
C57        C1101   1.496       .  S
C58        C1176   1.471       .  S
O59          C67   1.284       .  A
O59         Co79   2.025       .  S
O60          C68   1.259       .  A
O60         Co80   2.070       .  S
O61          C69   1.314       .  A
O61         Co81   2.089       .  S
O62          C70   1.258       .  A
O62         Co82   1.966       .  S
O63          C69   1.279       .  A
O63         Co80   1.853       .  S
O64          C70   1.269       .  A
O64         Co79   2.029       .  S
O65          C68   1.245       .  A
O65         Co82   1.969       .  S
O66          C67   1.293       .  A
O66         Co81   1.986       .  S
C67        C1029   1.493       .  S
C68        C1104   1.495       .  S
C69        C1041   1.463       .  S
C70         C993   1.474       .  S
O71          C84   1.260       .  A
O71         Co79   1.957       .  S
O72          C85   1.314       .  A
O72         Co80   2.098       .  S
O73          C86   1.248       .  A
O73         Co81   2.037       .  S
O74          C87   1.284   1_545  A
O74         Co82   2.040       .  S
O75          C87   1.282   1_545  A
O75         Co80   1.967       .  S
O76          C86   1.247       .  A
O76         Co79   1.970       .  S
O77          C84   1.268       .  A
O77         Co82   2.024       .  S
O78          C85   1.284       .  A
O78         Co81   1.881       .  S
Co79         O83   2.009       .  S
Co80         O83   2.013       .  S
Co81         O83   2.041       .  S
Co82         O83   2.041       .  S
C84        C1008   1.481       .  S
C85        C1056   1.488       .  S
C86        C1164   1.495       .  S
C87        C1017   1.494       .  S
O88          C96   1.286       .  A
O88        Co108   2.040       .  S
O89          C97   1.251       .  A
O89        Co109   2.051       .  S
O90          C98   1.319       .  A
O90        Co110   2.118       .  S
O91          C99   1.255       .  A
O91        Co111   1.956       .  S
O92          C98   1.273       .  A
O92        Co109   1.849       .  S
O93          C99   1.269       .  A
O93        Co108   2.035       .  S
O94          C97   1.237       .  A
O94        Co111   1.953       .  S
O95          C96   1.278       .  A
O95        Co110   1.965       .  S
C96        C1032   1.469       .  S
C97        C1092   1.483       .  S
C98         C981   1.490       .  S
C99         C957   1.491       .  S
O100        C113   1.259       .  A
O100       Co108   1.962       .  S
O101        C114   1.319       .  A
O101       Co109   2.124       .  S
O102        C115   1.257       .  A
O102       Co110   2.052       .  S
O103        C116   1.291       .  A
O103       Co111   2.050       .  S
O104        C116   1.282       .  A
O104       Co109   1.962       .  S
O105        C115   1.242       .  A
O105       Co108   1.957       .  S
O106        C113   1.269       .  A
O106       Co111   2.024       .  S
O107        C114   1.268       .  A
O107       Co110   1.847       .  S
Co108       O112   2.045       .  S
Co109       O112   2.049       .  S
Co110       O112   2.030       .  S
Co111       O112   2.021       .  S
C113        C948   1.495       .  S
C114        C972   1.496       .  S
C115       C1200   1.484       .  S
C116       C1020   1.468       .  S
O117        C125   1.279       .  A
O117       Co137   1.874       .  S
O118        C126   1.268       .  A
O118       Co138   2.021       .  S
O119        C127   1.287   1_554  A
O119       Co139   1.979       .  S
O120        C128   1.241   1_556  A
O120       Co140   1.965       .  S
O121        C127   1.287       .  A
O121       Co138   2.037       .  S
O122        C128   1.254       .  A
O122       Co137   2.060       .  S
O123        C126   1.257       .  A
O123       Co140   1.964       .  S
O124        C125   1.318       .  A
O124       Co139   2.113       .  S
C125        C996   1.487       .  S
C126        C888   1.469       .  S
C127        C912   1.495       .  S
C128        C897   1.482       .  S
O129        C142   1.284   1_554  A
O129       Co137   1.974       .  S
O130        C143   1.243   1_556  A
O130       Co138   1.966       .  S
O131        C144   1.279       .  A
O131       Co139   1.880       .  S
O132        C145   1.269       .  A
O132       Co140   2.020       .  S
O133        C145   1.259       .  A
O133       Co138   1.964       .  S
O134        C144   1.316       .  A
O134       Co137   2.108       .  S
O135        C142   1.289       .  A
O135       Co140   2.041       .  S
O136        C143   1.256       .  A
O136       Co139   2.055       .  S
Co137       O141   2.036   1_554  S
Co138       O141   2.029       .  S
Co139       O141   2.038   1_554  S
Co140       O141   2.030       .  S
C142        C921   1.475       .  S
C143        C933   1.484       .  S
C144       C1140   1.487       .  S
C145        C873   1.496       .  S
O146        C154   1.279       .  A
O146       Co166   1.871       .  S
O147        C155   1.270       .  A
O147       Co167   2.037       .  S
O148        C156   1.282   1_554  A
O148       Co168   1.968       .  S
O149        C157   1.237   1_556  A
O149       Co169   1.953       .  S
O150        C156   1.290       .  A
O150       Co167   2.043       .  S
O151        C157   1.252       .  A
O151       Co166   2.033       .  S
O152        C155   1.261       .  A
O152       Co169   1.953       .  S
O153        C154   1.317       .  A
O153       Co168   2.114       .  S
C154        C945   1.486       .  S
C155        C837   1.498       .  S
C156        C924   1.476       .  S
C157        C852   1.477       .  S
O158        C171   1.283   1_554  A
O158       Co166   1.972       .  S
O159        C172   1.242   1_556  A
O159       Co167   1.959       .  S
O160        C173   1.276       .  A
O160       Co168   1.859       .  S
O161        C174   1.266       .  A
O161       Co169   2.019       .  S
O162        C174   1.254       .  A
O162       Co167   1.956       .  S
O163        C173   1.316       .  A
O163       Co166   2.096       .  S
O164        C171   1.289       .  A
O164       Co169   2.042       .  S
O165        C172   1.254       .  A
O165       Co168   2.059       .  S
Co166       O170   2.036   1_554  S
Co167       O170   2.016       .  S
Co168       O170   2.035   1_554  S
Co169       O170   2.027       .  S
C171        C909   1.474   1_556  S
C172        C864   1.495       .  S
C173       C1065   1.480       .  S
C174        C828   1.473       .  S
O175        C183   1.279       .  A
O175       Co195   1.864       .  S
O176        C184   1.268       .  A
O176       Co196   2.027   1_655  S
O177        C185   1.274   1_554  A
O177       Co197   1.957       .  S
O178        C186   1.235   1_556  A
O178       Co198   1.967       .  S
O179        C185   1.288   1_455  A
O179       Co196   2.033       .  S
O180        C186   1.253       .  A
O180       Co195   2.068       .  S
O181        C184   1.257       .  A
O181       Co198   1.952   1_545  S
O182        C183   1.313   1_545  A
O182       Co197   2.094       .  S
C183       C1080   1.459       .  S
C184        C780   1.484       .  S
C185        C813   1.484       .  S
C186        C861   1.482       .  S
O187        C200   1.280   1_554  A
O187       Co195   1.961   1_455  S
O188        C201   1.246   1_556  A
O188       Co196   1.961       .  S
O189        C202   1.271       .  A
O189       Co197   1.852   1_455  S
O190        C203   1.264   1_655  A
O190       Co198   2.008       .  S
O191        C203   1.259       .  A
O191       Co196   1.965   1_565  S
O192        C202   1.316   1_565  A
O192       Co195   2.107   1_455  S
O193        C200   1.296   1_655  A
O193       Co198   2.060       .  S
O194        C201   1.259       .  A
O194       Co197   2.068   1_455  S
Co195       O199   2.036   1_554  S
Co196       O199   2.032   1_445  S
Co197       O199   2.018   1_544  S
Co198       O199   2.004       .  S
C200        C801   1.492       .  S
C201        C900   1.499       .  S
C202       C1005   1.484       .  S
C203        C792   1.467       .  S
O204        C212   1.274       .  A
O204       Co224   1.869       .  S
O205        C213   1.268       .  A
O205       Co225   2.029   1_455  S
O206        C214   1.282   1_554  A
O206       Co226   1.967   1_455  S
O207        C215   1.239   1_556  A
O207       Co227   1.954       .  S
O208        C214   1.288   1_655  A
O208       Co225   2.037       .  S
O209        C215   1.254       .  A
O209       Co224   2.051       .  S
O210        C213   1.250       .  A
O210       Co227   1.947       .  S
O211        C212   1.315       .  A
O211       Co226   2.110   1_455  S
C212        C960   1.500       .  S
C213        C768   1.494       .  S
C214        C816   1.469       .  S
C215        C849   1.479       .  S
O216        C229   1.282   1_554  A
O216       Co224   1.972   1_655  S
O217        C230   1.243   1_556  A
O217       Co225   1.971       .  S
O218        C231   1.281       .  A
O218       Co226   1.872       .  S
O219        C232   1.271   1_455  A
O219       Co227   2.028       .  S
O220        C232   1.258       .  A
O220       Co225   1.952       .  S
O221        C231   1.313       .  A
O221       Co224   2.096   1_655  S
O222        C229   1.286   1_455  A
O222       Co227   2.042       .  S
O223        C230   1.253       .  A
O223       Co226   2.037       .  S
Co224       O228   2.042   1_454  S
Co225       O228   2.047       .  S
Co226       O228   2.051   1_554  S
Co227       O228   2.027   1_455  S
C229        C804   1.477       .  S
C230        C936   1.495       .  S
C231       C1152   1.475       .  S
C232        C756   1.492       .  S
O233        C241   1.315       .  A
O233       Co253   2.099       .  S
O234        C242   1.258       .  A
O234       Co254   1.958       .  S
O235        C243   1.253       .  A
O235       Co255   2.055       .  S
O236        C244   1.290       .  A
O236       Co256   2.051       .  S
O237        C243   1.244       .  A
O237       Co254   1.965       .  S
O238        C244   1.280       .  A
O238       Co253   1.960       .  S
O239        C242   1.269       .  A
O239       Co256   2.017       .  S
O240        C241   1.276       .  A
O240       Co255   1.857       .  S
C241        C777   1.480       .  S
C242        C693   1.491       .  S
C243        C705   1.495       .  S
C244        C729   1.469       .  S
O245        C258   1.253       .  A
O245       Co253   2.044       .  S
O246        C259   1.286   1_545  A
O246       Co254   2.039       .  S
O247        C260   1.317       .  A
O247       Co255   2.115       .  S
O248        C261   1.258       .  A
O248       Co256   1.963       .  S
O249        C261   1.267       .  A
O249       Co254   2.016       .  S
O250        C260   1.277       .  A
O250       Co253   1.861       .  S
O251        C258   1.239       .  A
O251       Co256   1.963       .  S
O252        C259   1.284   1_545  A
O252       Co255   1.964       .  S
Co253       O257   2.032       .  S
Co254       O257   2.025       .  S
Co255       O257   2.029       .  S
Co256       O257   2.025       .  S
C258        C744   1.491       .  S
C259        C720   1.489       .  S
C260        C876   1.481       .  S
C261        C681   1.467       .  S
O262        C270   1.317       .  A
O262       Co282   2.106       .  S
O263        C271   1.254       .  A
O263       Co283   1.961       .  S
O264        C272   1.258       .  A
O264       Co284   2.062       .  S
O265        C273   1.284       .  A
O265       Co285   2.029       .  S
O266        C272   1.239       .  A
O266       Co283   1.957       .  S
O267        C273   1.289       .  A
O267       Co282   1.982       .  S
O268        C271   1.261       .  A
O268       Co285   2.012       .  S
O269        C270   1.273       .  A
O269       Co284   1.851       .  S
C270        C825   1.488       .  S
C271        C633   1.467       .  S
C272        C669   1.483       .  S
C273        C732   1.495       .  S
O274        C287   1.251       .  A
O274       Co282   2.033       .  S
O275        C288   1.286       .  A
O275       Co283   2.043       .  S
O276        C289   1.314       .  A
O276       Co284   2.098       .  S
O277        C290   1.256       .  A
O277       Co285   1.956       .  S
O278        C290   1.271       .  A
O278       Co283   2.035       .  S
O279        C289   1.282       .  A
O279       Co282   1.874       .  S
O280        C287   1.241       .  A
O280       Co285   1.963       .  S
O281        C288   1.280       .  A
O281       Co284   1.972       .  S
Co282       O286   2.041       .  S
Co283       O286   2.040       .  S
Co284       O286   2.022       .  S
Co285       O286   2.018       .  S
C287        C657   1.480       .  S
C288        C717   1.473       .  S
C289        C753   1.480       .  S
C290        C645   1.473       .  S
O291        C299   1.313       .  A
O291       Co311   2.093       .  S
O292        C300   1.257       .  A
O292       Co312   1.954       .  S
O293        C301   1.252       .  A
O293       Co313   2.046       .  S
O294        C302   1.288       .  A
O294       Co314   2.042       .  S
O295        C301   1.241       .  A
O295       Co312   1.954       .  S
O296        C302   1.281       .  A
O296       Co311   1.971       .  S
O297        C300   1.271       .  A
O297       Co314   2.025       .  S
O298        C299   1.283       .  A
O298       Co313   1.868       .  S
C299        C765   1.490       .  S
C300        C597   1.492       .  S
C301        C660   1.485       .  S
C302        C621   1.477       .  S
O303        C316   1.255       .  A
O303       Co311   2.051       .  S
O304        C317   1.289       .  A
O304       Co312   2.035       .  S
O305        C318   1.315       .  A
O305       Co313   2.099       .  S
O306        C319   1.258       .  A
O306       Co314   1.972       .  S
O307        C319   1.266       .  A
O307       Co312   2.017       .  S
O308        C318   1.278       .  A
O308       Co311   1.875       .  S
O309        C316   1.244       .  A
O309       Co314   1.967       .  S
O310        C317   1.287       .  A
O310       Co313   1.979       .  S
Co311       O315   2.035       .  S
Co312       O315   2.025       .  S
Co313       O315   2.045       .  S
Co314       O315   2.039       .  S
C316        C741   1.476       .  S
C317        C612   1.478       .  S
C318        C885   1.475       .  S
C319        C588   1.474       .  S
O320        C328   1.314       .  A
O320       Co340   2.109       .  S
O321        C329   1.260       .  A
O321       Co341   1.969       .  S
O322        C330   1.257       .  A
O322       Co342   2.047       .  S
O323        C331   1.290   1_565  A
O323       Co343   2.046       .  S
O324        C330   1.244       .  A
O324       Co341   1.960       .  S
O325        C331   1.284   1_565  A
O325       Co340   1.974       .  S
O326        C329   1.266       .  A
O326       Co343   2.015       .  S
O327        C328   1.281       .  A
O327       Co342   1.892       .  S
C328        C840   1.490       .  S
C329        C564   1.474       .  S
C330        C672   1.487       .  S
C331        C624   1.474       .  S
O332        C345   1.253       .  A
O332       Co340   2.068       .  S
O333        C346   1.286       .  A
O333       Co341   2.034       .  S
O334        C347   1.312       .  A
O334       Co342   2.091       .  S
O335        C348   1.256       .  A
O335       Co343   1.952       .  S
O336        C348   1.268       .  A
O336       Co341   2.033       .  S
O337        C347   1.283       .  A
O337       Co340   1.876       .  S
O338        C345   1.238       .  A
O338       Co343   1.962       .  S
O339        C346   1.284       .  A
O339       Co342   1.980       .  S
Co340       O344   2.038       .  S
Co341       O344   2.033       .  S
Co342       O344   2.034       .  S
Co343       O344   2.017       .  S
C345        C708   1.481       .  S
C346        C609   1.474       .  S
C347        C789   1.476       .  S
C348        C576   1.491       .  S
O349        C357   1.254       .  A
O349       Co369   1.972       .  S
O350        C358   1.274       .  A
O350       Co370   1.895       .  S
O351        C359   1.241       .  A
O351       Co371   1.958       .  S
O352        C360   1.265       .  A
O352       Co372   1.985       .  S
O353        C359   1.260       .  A
O353       Co370   2.072       .  S
O354        C360   1.260       .  A
O354       Co369   1.992       .  S
O355        C358   1.308   1_565  A
O355       Co372   2.094       .  S
O356        C357   1.259       .  A
O356       Co371   1.946   1_565  S
C357       C1116   1.475       .  S
C358        C684   1.479       .  S
C359        C549   1.482       .  S
C360        C525   1.462       .  S
O361        C374   1.246       .  A
O361       Co369   1.945       .  S
O362        C375   1.270       .  A
O362       Co370   1.969       .  S
O363        C376   1.255       .  A
O363       Co371   1.964       .  S
O364        C377   1.270       .  A
O364       Co372   1.878       .  S
O365        C377   1.307   1_545  A
O365       Co370   2.108       .  S
O366        C376   1.255   1_565  A
O366       Co369   1.956       .  S
O367        C374   1.272       .  A
O367       Co372   2.101       .  S
O368        C375   1.271       .  A
O368       Co371   2.005       .  S
Co369       O373   2.097       .  S
Co370       O373   2.087   1_545  S
Co371       O373   2.071   1_545  S
Co372       O373   2.049       .  S
C374        C516   1.486       .  S
C375        C537   1.472       .  S
C376       C1044   1.473       .  S
C377        C561   1.488       .  S
O378        C386   1.271       .  A
O378       Co398   2.034       .  S
O379        C387   1.280       .  A
O379       Co399   1.881       .  S
O380        C388   1.234       .  A
O380       Co400   1.958       .  S
O381        C389   1.282       .  A
O381       Co401   1.968       .  S
O382        C388   1.251       .  A
O382       Co399   2.061       .  S
O383        C389   1.281       .  A
O383       Co398   2.025       .  S
O384        C387   1.317       .  A
O384       Co401   2.110       .  S
O385        C386   1.256       .  A
O385       Co400   1.948       .  S
C386        C969   1.484       .  S
C387        C585   1.482       .  S
C388        C492   1.477       .  S
C389        C528   1.489       .  S
O390        C403   1.239       .  A
O390       Co398   1.950       .  S
O391        C404   1.277       .  A
O391       Co399   1.949       .  S
O392        C405   1.267       .  A
O392       Co400   2.022       .  S
O393        C406   1.274       .  A
O393       Co401   1.872       .  S
O394        C406   1.312       .  A
O394       Co399   2.098       .  S
O395        C405   1.255       .  A
O395       Co398   1.958       .  S
O396        C403   1.260       .  A
O396       Co401   2.062       .  S
O397        C404   1.294       .  A
O397       Co400   2.049       .  S
Co398       O402   2.032       .  S
Co399       O402   2.049       .  S
Co400       O402   1.996       .  S
Co401       O402   2.020       .  S
C403        C501   1.486       .  S
C404        C540   1.472       .  S
C405       C1212   1.491       .  S
C406        C636   1.479       .  S
O407        C415   1.268   1_455  A
O407       Co427   2.028       .  S
O408        C416   1.281       .  A
O408       Co428   1.871       .  S
O409        C417   1.246       .  A
O409       Co429   1.968       .  S
O410        C418   1.284   1_655  A
O410       Co430   1.970   1_655  S
O411        C417   1.255       .  A
O411       Co428   2.056       .  S
O412        C418   1.289       .  A
O412       Co427   2.045       .  S
O413        C416   1.312       .  A
O413       Co430   2.094   1_655  S
O414        C415   1.255       .  A
O414       Co429   1.955       .  S
C415       C1224   1.474       .  S
C416        C696   1.483       .  S
C417        C552   1.502       .  S
C418        C465   1.492   1_455  S
O419        C432   1.244       .  A
O419       Co427   1.968       .  S
O420        C433   1.281       .  A
O420       Co428   1.965   1_455  S
O421        C434   1.271       .  A
O421       Co429   2.030   1_455  S
O422        C435   1.283       .  A
O422       Co430   1.875       .  S
O423        C435   1.312       .  A
O423       Co428   2.094   1_455  S
O424        C434   1.259       .  A
O424       Co427   1.965       .  S
O425        C432   1.251       .  A
O425       Co430   2.041       .  S
O426        C433   1.286   1_655  A
O426       Co429   2.024       .  S
Co427       O431   2.036       .  S
Co428       O431   2.037   1_655  S
Co429       O431   2.018   1_655  S
Co430       O431   2.039       .  S
C432        C489   1.492       .  S
C433        C477   1.477       .  S
C434       C1053   1.500       .  S
C435        C600   1.481       .  S
O436        C444   1.273   1_455  A
O436       Co456   2.042       .  S
O437        C445   1.280       .  A
O437       Co457   1.857       .  S
O438        C446   1.239       .  A
O438       Co458   1.961       .  S
O439        C447   1.282       .  A
O439       Co459   1.963   1_655  S
O440        C446   1.254       .  A
O440       Co457   2.054       .  S
O441        C447   1.288   1_455  A
O441       Co456   2.032       .  S
O442        C445   1.312       .  A
O442       Co459   2.102   1_655  S
O443        C444   1.255       .  A
O443       Co458   1.950       .  S
C444       C1125   1.499       .  S
C445        C648   1.488       .  S
C446        C504   1.478       .  S
C447        C480   1.461       .  S
O448        C461   1.247       .  A
O448       Co456   1.970       .  S
O449        C462   1.282   1_455  A
O449       Co457   1.971   1_455  S
O450        C463   1.266   1_655  A
O450       Co458   2.023       .  S
O451        C464   1.281       .  A
O451       Co459   1.878       .  S
O452        C464   1.312       .  A
O452       Co457   2.088   1_455  S
O453        C463   1.257       .  A
O453       Co456   1.957       .  S
O454        C461   1.255       .  A
O454       Co459   2.058       .  S
O455        C462   1.289       .  A
O455       Co458   2.048       .  S
Co456       O460   2.012   1_455  S
Co457       O460   2.027       .  S
Co458       O460   2.037       .  S
Co459       O460   2.043   1_455  S
C461        C513   1.504       .  S
C462        C468   1.477   1_655  S
C463        C984   1.484       .  S
C464        C573   1.486       .  S
C465        C466   1.407       .  A
C465        C470   1.421   1_655  A
C466        C467   1.399       .  A
C466        H475   1.084       .  S
C467        C468   1.410   1_655  A
C467        S471   1.795       .  S
C468        C469   1.399       .  A
C469        C470   1.401       .  A
C469        H476   1.081       .  S
C470        S472   1.799       .  S
S471        H474   1.407       .  S
S472        H473   1.408       .  S
C477        C478   1.412   1_455  A
C477        C482   1.411       .  A
C478        C479   1.394   1_545  A
C478        H487   1.084       .  S
C479        C480   1.404       .  A
C479        S483   1.803       .  S
C480        C481   1.405   1_655  A
C481        C482   1.396   1_565  A
C481        H488   1.084       .  S
C482        S484   1.802       .  S
S483        H486   1.402       .  S
S484        H485   1.404       .  S
C489        C490   1.404       .  A
C489        C494   1.422       .  A
C490        C491   1.395       .  A
C490        H499   1.084       .  S
C491        C492   1.412       .  A
C491        S495   1.799       .  S
C492        C493   1.400       .  A
C493        C494   1.408       .  A
C493        H500   1.083       .  S
C494        S496   1.806       .  S
S495        H498   1.405       .  S
S496        H497   1.407       .  S
C501        C502   1.401       .  A
C501        C506   1.420       .  A
C502        C503   1.399       .  A
C502        H511   1.079       .  S
C503        C504   1.406       .  A
C503        S507   1.788       .  S
C504        C505   1.401       .  A
C505        C506   1.401       .  A
C505        H512   1.084       .  S
C506        S508   1.800       .  S
S507        H510   1.407       .  S
S508        H509   1.406       .  S
C513        C514   1.406       .  A
C513        C518   1.425       .  A
C514        C515   1.399       .  A
C514        H523   1.084       .  S
C515        C516   1.416       .  A
C515        S519   1.802       .  S
C516        C517   1.400       .  A
C517        C518   1.409       .  A
C517        H524   1.084       .  S
C518        S520   1.793       .  S
S519        H522   1.407       .  S
S520        H521   1.395       .  S
C525        C526   1.394       .  A
C525        C530   1.409       .  A
C526        C527   1.402       .  A
C526        H535   1.083       .  S
C527        C528   1.431       .  A
C527        S531   1.813       .  S
C528        C529   1.404       .  A
C529        C530   1.392       .  A
C529        H536   1.084       .  S
C530        S532   1.796       .  S
S531        H534   1.407       .  S
S532        H533   1.401       .  S
C537        C538   1.401       .  A
C537        C542   1.412       .  A
C538        C539   1.401       .  A
C538        H547   1.084       .  S
C539        C540   1.419       .  A
C539        S543   1.800       .  S
C540        C541   1.397       .  A
C541        C542   1.387       .  A
C541        H548   1.085       .  S
C542        S544   1.789       .  S
S543        H546   1.407       .  S
S544        H545   1.407       .  S
C549        C550   1.400       .  A
C549        C554   1.413       .  A
C550        C551   1.406       .  A
C550        H559   1.084       .  S
C551        C552   1.424       .  A
C551        S555   1.796       .  S
C552        C553   1.408       .  A
C553        C554   1.401       .  A
C553        H560   1.084       .  S
C554        S556   1.802       .  S
S555        H558   1.396       .  S
S556        H557   1.405       .  S
C561        C562   1.402       .  A
C561        C566   1.416   1_565  A
C562        C563   1.382       .  A
C562        H571   1.073       .  S
C563        C564   1.402       .  A
C563        S567   1.804       .  S
C564        C565   1.410       .  A
C565        C566   1.416   1_565  A
C565        H572   1.083   1_565  S
C566        S568   1.799       .  S
S567        H570   1.406       .  S
S568        H569   1.405       .  S
C573        C574   1.406       .  A
C573        C578   1.415       .  A
C574        C575   1.414       .  A
C574        H583   1.082       .  S
C575        C576   1.418       .  A
C575        S579   1.803       .  S
C576        C577   1.401       .  A
C577        C578   1.387       .  A
C577        H584   1.082       .  S
C578        S580   1.803   1_455  S
S579        H582   1.407       .  S
S580        H581   1.407       .  S
C585        C586   1.407       .  A
C585        C590   1.417       .  A
C586        C587   1.410       .  A
C586        H595   1.084       .  S
C587        C588   1.412       .  A
C587        S591   1.803       .  S
C588        C589   1.397       .  A
C589        C590   1.395       .  A
C589        H596   1.083       .  S
C590        S592   1.808       .  S
S591        H594   1.405       .  S
S592        H593   1.407       .  S
C597        C598   1.414       .  A
C597        C602   1.419       .  A
C598        C599   1.408       .  A
C598        H607   1.083       .  S
C599        C600   1.411       .  A
C599        S603   1.798       .  S
C600        C601   1.401       .  A
C601        C602   1.390       .  A
C601        H608   1.084       .  S
C602        S604   1.805       .  S
S603        H606   1.406       .  S
S604        H605   1.406       .  S
C609        C610   1.409       .  A
C609        C614   1.406       .  A
C610        C611   1.400       .  A
C610        H619   1.085       .  S
C611        C612   1.408       .  A
C611        S615   1.803       .  S
C612        C613   1.411       .  A
C613        C614   1.399       .  A
C613        H620   1.084       .  S
C614        S616   1.803       .  S
S615        H618   1.407       .  S
S616        H617   1.406       .  S
C621        C622   1.410       .  A
C621        C626   1.408       .  A
C622        C623   1.401       .  A
C622        H631   1.083       .  S
C623        C624   1.407       .  A
C623        S627   1.803       .  S
C624        C625   1.408       .  A
C625        C626   1.398       .  A
C625        H632   1.083       .  S
C626        S628   1.803       .  S
S627        H630   1.406       .  S
S628        H629   1.405       .  S
C633        C634   1.397       .  A
C633        C638   1.410       .  A
C634        C635   1.392       .  A
C634        H643   1.082       .  S
C635        C636   1.419       .  A
C635        S639   1.815       .  S
C636        C637   1.407       .  A
C637        C638   1.406       .  A
C637        H644   1.084       .  S
C638        S640   1.802       .  S
S639        H642   1.407       .  S
S640        H641   1.405       .  S
C645        C646   1.407       .  A
C645        C650   1.407       .  A
C646        C647   1.415       .  A
C646        H655   1.084       .  S
C647        C648   1.424       .  A
C647        S651   1.805       .  S
C648        C649   1.402       .  A
C649        C650   1.379       .  A
C649        H656   1.080       .  S
C650        S652   1.803       .  S
S651        H654   1.399       .  S
S652        H653   1.407       .  S
C657        C658   1.398       .  A
C657        C662   1.416       .  A
C658        C659   1.394   1_655  A
C658        H667   1.083       .  S
C659        C660   1.412       .  A
C659        S663   1.784       .  S
C660        C661   1.403       .  A
C661        C662   1.402   1_455  A
C661        H668   1.084       .  S
C662        S664   1.796       .  S
S663        H666   1.388       .  S
S664        H665   1.403       .  S
C669        C670   1.400       .  A
C669        C674   1.409       .  A
C670        C671   1.397       .  A
C670        H679   1.085       .  S
C671        C672   1.417       .  A
C671        S675   1.795       .  S
C672        C673   1.404       .  A
C673        C674   1.407       .  A
C673        H680   1.081       .  S
C674        S676   1.790       .  S
S675        H678   1.406       .  S
S676        H677   1.407       .  S
C681        C682   1.396       .  A
C681        C686   1.412       .  A
C682        C683   1.389       .  A
C682        H691   1.085       .  S
C683        C684   1.417       .  A
C683        S687   1.803       .  S
C684        C685   1.407       .  A
C685        C686   1.408       .  A
C685        H692   1.084   1_545  S
C686        S688   1.803   1_545  S
S687        H690   1.398       .  S
S688        H689   1.403       .  S
C693        C694   1.414       .  A
C693        C698   1.417       .  A
C694        C695   1.407       .  A
C694        H703   1.083       .  S
C695        C696   1.410       .  A
C695        S699   1.798       .  S
C696        C697   1.403       .  A
C697        C698   1.390       .  A
C697        H704   1.084       .  S
C698        S700   1.805       .  S
S699        H702   1.406       .  S
S700        H701   1.408       .  S
C705        C706   1.406       .  A
C705        C710   1.420   1_545  A
C706        C707   1.403   1_655  A
C706        H715   1.083       .  S
C707        C708   1.411   1_545  A
C707        S711   1.807       .  S
C708        C709   1.400       .  A
C709        C710   1.405   1_455  A
C709        H716   1.083       .  S
C710        S712   1.795       .  S
S711        H714   1.407       .  S
S712        H713   1.407       .  S
C717        C718   1.396       .  A
C717        C722   1.411       .  A
C718        C719   1.406       .  A
C718        H727   1.083       .  S
C719        C720   1.428       .  A
C719        S723   1.811       .  S
C720        C721   1.401       .  A
C721        C722   1.396       .  A
C721        H728   1.082       .  S
C722        S724   1.801       .  S
S723        H726   1.407       .  S
S724        H725   1.407       .  S
C729        C730   1.393       .  A
C729        C734   1.411       .  A
C730        C731   1.397       .  A
C730        H739   1.085       .  S
C731        C732   1.430       .  A
C731        S735   1.801       .  S
C732        C733   1.406       .  A
C733        C734   1.403       .  A
C733        H740   1.082       .  S
C734        S736   1.805       .  S
S735        H738   1.408       .  S
S736        H737   1.407       .  S
C741        C742   1.401       .  A
C741        C746   1.409       .  A
C742        C743   1.400       .  A
C742        H751   1.084       .  S
C743        C744   1.420       .  A
C743        S747   1.802       .  S
C744        C745   1.408       .  A
C745        C746   1.401       .  A
C745        H752   1.082       .  S
C746        S748   1.799       .  S
S747        H750   1.408       .  S
S748        H749   1.405       .  S
C753        C754   1.401       .  A
C753        C758   1.411       .  A
C754        C755   1.391       .  A
C754        H763   1.084       .  S
C755        C756   1.417       .  A
C755        S759   1.805       .  S
C756        C757   1.413       .  A
C757        C758   1.409       .  A
C757        H764   1.083   1_655  S
C758        S760   1.799       .  S
S759        H762   1.407       .  S
S760        H761   1.404       .  S
C765        C766   1.402       .  A
C765        C770   1.414       .  A
C766        C767   1.389       .  A
C766        H775   1.084       .  S
C767        C768   1.419       .  A
C767        S771   1.805       .  S
C768        C769   1.413       .  A
C769        C770   1.409       .  A
C769        H776   1.083       .  S
C770        S772   1.801       .  S
S771        H774   1.408       .  S
S772        H773   1.406       .  S
C777        C778   1.407       .  A
C777        C782   1.422       .  A
C778        C779   1.407       .  A
C778        H787   1.084       .  S
C779        C780   1.416       .  A
C779        S783   1.799       .  S
C780        C781   1.401       .  A
C781        C782   1.384       .  A
C781        H788   1.084       .  S
C782        S784   1.811       .  S
S783        H786   1.402       .  S
S784        H785   1.395       .  S
C789        C790   1.404       .  A
C789        C794   1.414       .  A
C790        C791   1.403       .  A
C790        H799   1.084       .  S
C791        C792   1.410       .  A
C791        S795   1.798       .  S
C792        C793   1.399       .  A
C793        C794   1.395       .  A
C793        H800   1.083   1_565  S
C794        S796   1.811   1_565  S
S795        H798   1.405       .  S
S796        H797   1.407       .  S
C801        C802   1.406   1_455  A
C801        C806   1.421   1_556  A
C802        C803   1.399       .  A
C802        H811   1.081       .  S
C803        C804   1.406       .  A
C803        S807   1.794       .  S
C804        C805   1.402   1_656  A
C805        C806   1.402       .  A
C805        H812   1.085       .  S
C806        S808   1.799       .  S
S807        H810   1.406       .  S
S808        H809   1.405       .  S
C813        C814   1.404   1_655  A
C813        C818   1.421   1_556  A
C814        C815   1.389       .  A
C814        H823   1.081       .  S
C815        C816   1.404       .  A
C815        S819   1.789       .  S
C816        C817   1.403   1_456  A
C817        C818   1.403       .  A
C817        H824   1.084       .  S
C818        S820   1.800       .  S
S819        H822   1.407       .  S
S820        H821   1.407       .  S
C825        C826   1.410       .  A
C825        C830   1.424       .  A
C826        C827   1.412       .  A
C826        H835   1.082       .  S
C827        C828   1.410       .  A
C827        S831   1.803       .  S
C828        C829   1.395       .  A
C829        C830   1.383       .  A
C829        H836   1.085       .  S
C830        S832   1.806       .  S
S831        H834   1.407       .  S
S832        H833   1.409       .  S
C837        C838   1.401       .  A
C837        C842   1.424       .  A
C838        C839   1.388       .  A
C838        H847   1.084       .  S
C839        C840   1.410       .  A
C839        S843   1.789       .  S
C840        C841   1.406       .  A
C841        C842   1.416       .  A
C841        H848   1.083       .  S
C842        S844   1.799       .  S
S843        H846   1.405       .  S
S844        H845   1.405       .  S
C849        C850   1.403   1_554  A
C849        C854   1.409       .  A
C850        C851   1.400       .  A
C850        H859   1.084       .  S
C851        C852   1.416   1_556  A
C851        S855   1.800       .  S
C852        C853   1.400       .  A
C853        C854   1.395       .  A
C853        H860   1.084       .  S
C854        S856   1.782       .  S
S855        H858   1.407       .  S
S856        H857   1.406       .  S
C861        C862   1.403       .  A
C861        C866   1.409   1_554  A
C862        C863   1.407       .  A
C862        H871   1.083       .  S
C863        C864   1.419       .  A
C863        S867   1.798       .  S
C864        C865   1.408   1_554  A
C865        C866   1.402       .  A
C865        H872   1.082       .  S
C866        S868   1.806       .  S
S867        H870   1.407       .  S
S868        H869   1.407       .  S
C873        C874   1.417       .  A
C873        C878   1.418       .  A
C874        C875   1.410       .  A
C874        H883   1.083       .  S
C875        C876   1.408       .  A
C875        S879   1.798       .  S
C876        C877   1.403       .  A
C877        C878   1.390       .  A
C877        H884   1.085       .  S
C878        S880   1.803       .  S
S879        H882   1.404       .  S
S880        H881   1.400       .  S
C885        C886   1.405       .  A
C885        C890   1.414       .  A
C886        C887   1.406       .  A
C886        H895   1.084       .  S
C887        C888   1.413       .  A
C887        S891   1.803       .  S
C888        C889   1.399       .  A
C889        C890   1.395       .  A
C889        H896   1.082       .  S
C890        S892   1.812       .  S
S891        H894   1.403       .  S
S892        H893   1.406       .  S
C897        C898   1.402       .  A
C897        C902   1.410   1_554  A
C898        C899   1.407       .  A
C898        H907   1.083       .  S
C899        C900   1.420       .  A
C899        S903   1.795       .  S
C900        C901   1.409   1_554  A
C901        C902   1.403       .  A
C901        H908   1.082       .  S
C902        S904   1.808       .  S
S903        H906   1.407       .  S
S904        H905   1.406       .  S
C909        C910   1.397   1_554  A
C909        C914   1.408       .  A
C910        C911   1.404       .  A
C910        H919   1.082       .  S
C911        C912   1.427       .  A
C911        S915   1.811       .  S
C912        C913   1.408   1_556  A
C913        C914   1.400       .  A
C913        H920   1.083       .  S
C914        S916   1.797       .  S
S915        H918   1.407       .  S
S916        H917   1.406       .  S
C921        C922   1.409       .  A
C921        C926   1.409       .  A
C922        C923   1.398   1_545  A
C922        H931   1.084       .  S
C923        C924   1.408       .  A
C923        S927   1.803       .  S
C924        C925   1.410       .  A
C925        C926   1.399   1_565  A
C925        H932   1.084       .  S
C926        S928   1.804       .  S
S927        H930   1.407       .  S
S928        H929   1.400       .  S
C933        C934   1.406       .  A
C933        C938   1.413       .  A
C934        C935   1.403       .  A
C934        H943   1.083   1_554  S
C935        C936   1.417       .  A
C935        S939   1.805   1_554  S
C936        C937   1.411       .  A
C937        C938   1.404       .  A
C937        H944   1.084       .  S
C938        S940   1.808       .  S
S939        H942   1.403   1_556  S
S940        H941   1.401       .  S
C945        C946   1.404       .  A
C945        C950   1.412       .  A
C946        C947   1.392       .  A
C946        H955   1.084       .  S
C947        C948   1.415       .  A
C947        S951   1.805       .  S
C948        C949   1.414       .  A
C949        C950   1.412       .  A
C949        H956   1.083       .  S
C950        S952   1.798       .  S
S951        H954   1.408       .  S
S952        H953   1.404       .  S
C957        C958   1.401       .  A
C957        C962   1.414       .  A
C958        C959   1.394       .  A
C958        H967   1.083       .  S
C959        C960   1.424       .  A
C959        S963   1.815   1_455  S
C960        C961   1.411       .  A
C961        C962   1.413       .  A
C961        H968   1.083       .  S
C962        S964   1.797       .  S
S963        H966   1.407       .  S
S964        H965   1.407       .  S
C969        C970   1.398       .  A
C969        C974   1.415       .  A
C970        C971   1.382       .  A
C970        H979   1.085       .  S
C971        C972   1.424       .  A
C971        S975   1.809       .  S
C972        C973   1.411       .  A
C973        C974   1.413       .  A
C973        H980   1.083       .  S
C974        S976   1.799       .  S
S975        H978   1.400       .  S
S976        H977   1.406       .  S
C981        C982   1.408       .  A
C981        C986   1.423       .  A
C982        C983   1.411       .  A
C982        H991   1.083       .  S
C983        C984   1.419       .  A
C983        S987   1.803   1_455  S
C984        C985   1.399       .  A
C985        C986   1.382       .  A
C985        H992   1.084       .  S
C986        S988   1.808       .  S
S987        H990   1.399       .  S
S988        H989   1.395       .  S
C993        C994   1.395       .  A
C993        C998   1.414       .  A
C994        C995   1.388       .  A
C994       H1003   1.083       .  S
C995        C996   1.420       .  A
C995        S999   1.805       .  S
C996        C997   1.408       .  A
C997        C998   1.410       .  A
C997       H1004   1.084       .  S
C998       S1000   1.800       .  S
S999       H1002   1.398       .  S
S1000      H1001   1.406       .  S
C1005      C1006   1.405       .  A
C1005      C1010   1.426       .  A
C1006      C1007   1.405       .  A
C1006      H1015   1.083   1_545  S
C1007      C1008   1.413       .  A
C1007      S1011   1.791   1_545  S
C1008      C1009   1.397       .  A
C1009      C1010   1.388       .  A
C1009      H1016   1.083       .  S
C1010      S1012   1.814   1_455  S
S1011      H1014   1.405   1_565  S
S1012      H1013   1.407       .  S
C1017      C1018   1.406       .  A
C1017      C1022   1.428       .  A
C1018      C1019   1.398       .  A
C1018      H1027   1.082       .  S
C1019      C1020   1.409       .  A
C1019      S1023   1.807       .  S
C1020      C1021   1.395       .  A
C1021      C1022   1.404       .  A
C1021      H1028   1.083       .  S
C1022      S1024   1.808       .  S
S1023      H1026   1.406       .  S
S1024      H1025   1.407       .  S
C1029      C1030   1.405       .  A
C1029      C1034   1.434       .  A
C1030      C1031   1.397       .  A
C1030      H1039   1.083       .  S
C1031      C1032   1.411       .  A
C1031      S1035   1.797       .  S
C1032      C1033   1.392       .  A
C1033      C1034   1.399       .  A
C1033      H1040   1.085       .  S
C1034      S1036   1.807       .  S
S1035      H1038   1.404       .  S
S1036      H1037   1.401       .  S
C1041      C1042   1.402       .  A
C1041      C1046   1.406       .  A
C1042      C1043   1.383       .  A
C1042      H1051   1.085   1_545  S
C1043      C1044   1.413       .  A
C1043      S1047   1.802   1_545  S
C1044      C1045   1.404       .  A
C1045      C1046   1.397       .  A
C1045      H1052   1.071       .  S
C1046      S1048   1.799       .  S
S1047      H1050   1.405       .  S
S1048      H1049   1.406       .  S
C1053      C1054   1.414       .  A
C1053      C1058   1.419       .  A
C1054      C1055   1.409       .  A
C1054      H1063   1.083       .  S
C1055      C1056   1.412       .  A
C1055      S1059   1.799       .  S
C1056      C1057   1.403       .  A
C1057      C1058   1.396       .  A
C1057      H1064   1.084       .  S
C1058      S1060   1.803       .  S
S1059      H1062   1.405       .  S
S1060      H1061   1.405       .  S
C1065      C1066   1.405       .  A
C1065      C1070   1.424       .  A
C1066      C1067   1.403       .  A
C1066      H1075   1.083       .  S
C1067      C1068   1.413       .  A
C1067      S1071   1.795       .  S
C1068      C1069   1.398       .  A
C1069      C1070   1.388       .  A
C1069      H1076   1.085       .  S
C1070      S1072   1.809       .  S
S1071      H1074   1.402       .  S
S1072      H1073   1.398       .  S
C1077      C1078   1.402       .  A
C1077      C1082   1.411       .  A
C1078      C1079   1.384       .  A
C1078      H1087   1.084       .  S
C1079      C1080   1.410       .  A
C1079      S1083   1.807       .  S
C1080      C1081   1.401   1_565  A
C1081      C1082   1.401   1_545  A
C1081      H1088   1.080       .  S
C1082      S1084   1.799   1_565  S
S1083      H1086   1.408       .  S
S1084      H1085   1.406       .  S
C1089      C1090   1.401       .  A
C1089      C1094   1.418       .  A
C1090      C1091   1.396   1_655  A
C1090      H1099   1.081       .  S
C1091      C1092   1.410       .  A
C1091      S1095   1.785       .  S
C1092      C1093   1.404       .  A
C1093      C1094   1.401   1_455  A
C1093      H1100   1.084       .  S
C1094      S1096   1.803       .  S
S1095      H1098   1.402       .  S
S1096      H1097   1.407       .  S
C1101      C1102   1.409       .  A
C1101      C1106   1.411       .  A
C1102      C1103   1.403   1_565  A
C1102      H1111   1.084       .  S
C1103      C1104   1.416       .  A
C1103      S1107   1.804       .  S
C1104      C1105   1.406       .  A
C1105      C1106   1.407   1_545  A
C1105      H1112   1.075       .  S
C1106      S1108   1.793       .  S
S1107      H1110   1.404       .  S
S1108      H1109   1.405       .  S
C1113      C1114   1.407       .  A
C1113      C1118   1.424       .  A
C1114      C1115   1.405       .  A
C1114      H1123   1.083       .  S
C1115      C1116   1.413       .  A
C1115      S1119   1.799       .  S
C1116      C1117   1.397       .  A
C1117      C1118   1.382       .  A
C1117      H1124   1.086       .  S
C1118      S1120   1.811       .  S
S1119      H1122   1.407       .  S
S1120      H1121   1.394       .  S
C1125      C1126   1.416       .  A
C1125      C1130   1.421       .  A
C1126      C1127   1.415       .  A
C1126      H1135   1.083   1_655  S
C1127      C1128   1.413       .  A
C1127      S1131   1.798       .  S
C1128      C1129   1.403       .  A
C1129      C1130   1.388       .  A
C1129      H1136   1.085       .  S
C1130      S1132   1.807       .  S
S1131      H1134   1.405       .  S
S1132      H1133   1.403       .  S
C1137      C1138   1.403       .  A
C1137      C1142   1.423       .  A
C1138      C1139   1.387       .  A
C1138      H1147   1.084       .  S
C1139      C1140   1.412       .  A
C1139      S1143   1.793       .  S
C1140      C1141   1.403       .  A
C1141      C1142   1.412       .  A
C1141      H1148   1.079       .  S
C1142      S1144   1.799       .  S
S1143      H1146   1.404       .  S
S1144      H1145   1.408       .  S
C1149      C1150   1.411       .  A
C1149      C1154   1.415       .  A
C1150      C1151   1.403       .  A
C1150      H1159   1.083       .  S
C1151      C1152   1.408       .  A
C1151      S1155   1.793       .  S
C1152      C1153   1.402       .  A
C1153      C1154   1.391       .  A
C1153      H1160   1.082       .  S
C1154      S1156   1.806       .  S
S1155      H1158   1.404       .  S
S1156      H1157   1.405       .  S
C1161      C1162   1.397       .  A
C1161      C1166   1.413       .  A
C1162      C1163   1.403   1_655  A
C1162      H1171   1.084       .  S
C1163      C1164   1.426       .  A
C1163      S1167   1.798       .  S
C1164      C1165   1.405       .  A
C1165      C1166   1.397   1_455  A
C1165      H1172   1.084       .  S
C1166      S1168   1.800       .  S
S1167      H1170   1.388       .  S
S1168      H1169   1.405       .  S
C1173      C1174   1.408       .  A
C1173      C1178   1.406       .  A
C1174      C1175   1.402       .  A
C1174      H1183   1.084       .  S
C1175      C1176   1.411       .  A
C1175      S1179   1.799       .  S
C1176      C1177   1.403       .  A
C1177      C1178   1.385       .  A
C1177      H1184   1.080       .  S
C1178      S1180   1.797       .  S
S1179      H1182   1.407       .  S
S1180      H1181   1.402       .  S
C1185      C1186   1.403       .  A
C1185      C1190   1.407       .  A
C1186      C1187   1.393       .  A
C1186      H1195   1.079       .  S
C1187      C1188   1.408       .  A
C1187      S1191   1.808       .  S
C1188      C1189   1.407       .  A
C1189      C1190   1.395       .  A
C1189      H1196   1.084       .  S
C1190      S1192   1.799       .  S
S1191      H1194   1.405       .  S
S1192      H1193   1.405       .  S
C1197      C1198   1.397       .  A
C1197      C1202   1.419       .  A
C1198      C1199   1.394       .  A
C1198      H1207   1.085       .  S
C1199      C1200   1.410       .  A
C1199      S1203   1.775       .  S
C1200      C1201   1.403       .  A
C1201      C1202   1.402       .  A
C1201      H1208   1.084       .  S
C1202      S1204   1.802       .  S
S1203      H1206   1.406       .  S
S1204      H1205   1.407       .  S
C1209      C1210   1.402       .  A
C1209      C1214   1.412       .  A
C1210      C1211   1.395       .  A
C1210      H1219   1.085       .  S
C1211      C1212   1.416       .  A
C1211      S1215   1.804       .  S
C1212      C1213   1.411       .  A
C1213      C1214   1.408       .  A
C1213      H1220   1.083       .  S
C1214      S1216   1.798       .  S
S1215      H1218   1.408       .  S
S1216      H1217   1.405       .  S
C1221      C1222   1.406       .  A
C1221      C1226   1.418       .  A
C1222      C1223   1.390       .  A
C1222      H1231   1.082       .  S
C1223      C1224   1.410       .  A
C1223      S1227   1.812       .  S
C1224      C1225   1.404       .  A
C1225      C1226   1.409       .  A
C1225      H1232   1.082       .  S
C1226      S1228   1.798       .  S
S1227      H1230   1.406       .  S
S1228      H1229   1.407       .  S
