geometry optimzed in LAMMPS
_audit_creation_date              2020-11-30 
_audit_creation_method            'lammps2cif' 
_symmetry_space_group_name_H-M    'P1' 
_symmetry_Int_Tables_number       1 
_symmetry_cell_setting            triclinic 
loop_ 
_symmetry_equiv_pos_as_xyz 
  x,y,z 
_cell_length_a                    45.12427627 
_cell_length_b                    45.17831708455995 
_cell_length_c                    45.119576073511624 
_cell_angle_alpha                 89.9751795848817 
_cell_angle_beta                  89.75935997673935 
_cell_angle_gamma                 90.06473353036124 
loop_ 
_atom_site_label 
_atom_site_type_symbol 
_atom_site_fract_x 
_atom_site_fract_y 
_atom_site_fract_z 
_atom_site_charge 
C1          C  0.01437434  0.25812155  0.20395096     0.80000
N2          N  0.01480904  0.27749042  0.22687198    -0.78300
C3          C  0.01678360  0.26773426  0.25503275     0.82400
N4          N  0.01831652  0.23856777  0.26038402    -0.78300
C5          C  0.01691642  0.21862395  0.23828113     0.82500
N6          N  0.01475516  0.22816954  0.20946251    -0.80000
O7          O  0.00624119  0.42987357  0.41819459    -0.80400
O8          O  0.00538456  0.43765611  0.58707513    -0.81900
O9          O  0.05169413  0.39578283  0.49902321    -0.79000
O10         O  0.95388823  0.39510044  0.50673860    -0.77300
O11         O  0.91827200  0.43085716  0.50336152    -0.79100
O12         O  0.08656740  0.43238279  0.49857206    -0.80100
O13         O  0.00907759  0.40044466  0.55251117    -0.81400
O14         O  0.00315153  0.39465386  0.45470281    -0.81700
Eu15       Eu  0.00248822  0.42041912  0.50237104     2.39200
O16         O  0.97158177  0.45120025  0.53139063    -0.89200
O17         O  0.03142028  0.45012917  0.47056732    -0.92800
C18         C  0.00527131  0.40301170  0.42745262     1.01900
C19         C  0.01002146  0.41058957  0.57922651     1.01700
C20         C  0.07893155  0.40474525  0.49755605     1.01700
C21         C  0.92654201  0.40369453  0.50636448     0.99500
H22         H  0.04420983  0.44243267  0.54299104     0.29300
O23         O  0.03089921  0.45343189  0.53061314    -1.01600
H24         H  0.96043551  0.43533493  0.45815270     0.29300
O25         O  0.97274657  0.44839811  0.46975865    -1.04100
O26         O  0.99983234  0.53454158  0.58065311    -0.81300
O27         O  0.00531742  0.52603737  0.41172553    -0.80900
O28         O  0.08522452  0.48502955  0.54694890    -0.79300
O29         O  0.91600240  0.48217519  0.54475014    -0.82700
O30         O  0.91697871  0.47676608  0.45141798    -0.80500
O31         O  0.08602542  0.47965923  0.45160363    -0.79200
O32         O  0.05123844  0.56544793  0.49793036    -0.80700
O33         O  0.95106303  0.56435289  0.49146695    -0.82600
O34         O  0.08654120  0.52924434  0.49910346    -0.79300
O35         O  0.91729055  0.52679059  0.49466878    -0.82000
O36         O  0.05033789  0.48589560  0.58357610    -0.77800
O37         O  0.05173521  0.47916311  0.41462167    -0.77800
O38         O  0.95167545  0.47609352  0.41466018    -0.77400
O39         O  0.94896644  0.48741465  0.58237404    -0.80900
O40         O  0.99924955  0.56800077  0.54236673    -0.80400
O41         O  0.00546127  0.56339546  0.44610846    -0.78700
Eu42       Eu  0.00028527  0.48436065  0.55989948     2.39800
Eu43       Eu  0.00194803  0.47893275  0.43855730     2.39600
Eu44       Eu  0.06105046  0.48128036  0.49926924     2.38400
Eu45       Eu  0.94276859  0.47932895  0.49848044     2.39900
Eu46       Eu  0.00124960  0.54146600  0.49559661     2.39800
O47         O  0.97135232  0.50971887  0.46698741    -0.93100
O48         O  0.03047449  0.51267327  0.52773405    -0.92000
C49         C  0.99911047  0.56105516  0.57002843     1.02100
C50         C  0.00702039  0.55350295  0.41934428     1.00800
C51         C  0.07764640  0.48591669  0.57436627     1.00200
C52         C  0.92204522  0.48622714  0.57217310     1.02200
C53         C  0.92433768  0.47562528  0.42390621     1.01100
C54         C  0.07880647  0.47948613  0.42409988     1.00000
C55         C  0.07859472  0.55664259  0.49903081     1.00000
C56         C  0.92409934  0.55434075  0.49201662     1.02600
H57         H  0.04483104  0.52192139  0.45517534     0.30000
O58         O  0.03187653  0.51017299  0.46755625    -1.05300
H59         H  0.95811844  0.52502806  0.53804926     0.32100
O60         O  0.97118930  0.51220631  0.52696071    -1.07800
C61         C  0.01348513  0.74425700  0.76298115     0.80000
N62         N  0.00755575  0.72211020  0.74376418    -0.78300
C63         C  0.00660704  0.72707668  0.71437617     0.82400
N64         N  0.01123265  0.75467729  0.70403372    -0.78300
C65         C  0.01648918  0.77750622  0.72268212     0.82500
N66         N  0.01786709  0.77248249  0.75263893    -0.80000
C67         C  0.01801432  0.26236821  0.76528840     0.80000
N68         N  0.04023431  0.27490422  0.74958913    -0.78300
C69         C  0.05052504  0.26302018  0.72413729     0.82400
N70         N  0.03807046  0.23758902  0.71442844    -0.78300
C71         C  0.01585603  0.22408934  0.72960984     0.82500
N72         N  0.00495111  0.23694920  0.75498907    -0.80000
C73         C  0.00552381  0.73212931  0.22243113     0.80000
N74         N  0.99677651  0.75791224  0.23599549    -0.78300
C75         C  0.00024384  0.76089812  0.26611334     0.82400
N76         N  0.01101753  0.73765766  0.28191889    -0.78300
C77         C  0.01888201  0.71204888  0.26843874     0.82500
N78         N  0.01648789  0.70974855  0.23886651    -0.80000
O79         O  0.00346661  0.05033138  0.40188100    -0.80400
O80         O  0.99286301  0.05893753  0.56934291    -0.81900
O81         O  0.94913779  0.08849870  0.47608547    -0.79000
O82         O  0.04314444  0.09588092  0.49289262    -0.77300
O83         O  0.08095559  0.06241643  0.49844530    -0.79100
O84         O  0.91526830  0.05051297  0.47437514    -0.80100
O85         O  0.98935164  0.09431439  0.53352248    -0.81400
O86         O  0.99815465  0.08891370  0.43376598    -0.81700
Eu87       Eu  0.99730807  0.06757958  0.48528897     2.39200
O88         O  0.02704738  0.04071275  0.51834763    -0.89200
O89         O  0.97200327  0.03251492  0.45610152    -0.92800
C90         C  0.00034640  0.07820343  0.40712808     1.01900
C91         C  0.98928900  0.08595277  0.56106880     1.01700
C92         C  0.92311118  0.07797501  0.47172188     1.01700
C93         C  0.07017480  0.08885711  0.49878260     0.99500
H94         H  0.95210343  0.04866338  0.52582283     0.29300
O95         O  0.96614346  0.03682576  0.51479141    -1.01600
H96         H  0.04330346  0.05091790  0.44657896     0.29300
O97         O  0.03134485  0.03796526  0.45876613    -1.04100
O98         O  0.00038396  0.96330466  0.57513891    -0.81300
O99         O  0.00462985  0.95242082  0.40703735    -0.80900
O100        O  0.91316063  0.00115067  0.53381066    -0.79300
O101        O  0.08186376  0.01497403  0.54419173    -0.82700
O102        O  0.08864326  0.01715480  0.44462734    -0.80500
O103        O  0.92092764  0.99689253  0.43258361    -0.79200
O104        O  0.95921327  0.92096039  0.49729488    -0.80700
O105        O  0.05538718  0.92681789  0.49209857    -0.82600
O106        O  0.92013387  0.95168399  0.48825482    -0.79300
O107        O  0.08926596  0.96468692  0.49303136    -0.82000
O108        O  0.94816932  0.00362972  0.57021445    -0.77800
O109        O  0.95946728  0.00128453  0.40027167    -0.77800
O110        O  0.05573315  0.00530226  0.40836062    -0.77400
O111        O  0.04260360  0.01313259  0.57601553    -0.80900
O112        O  0.00696405  0.92580904  0.54180279    -0.80400
O113        O  0.00494236  0.91853547  0.44472791    -0.78700
Eu114      Eu  0.99698878  0.00981113  0.54737038     2.39800
Eu115      Eu  0.00544756  0.00318682  0.42902916     2.39600
Eu116      Eu  0.94003254  0.00265608  0.48465373     2.38400
Eu117      Eu  0.06187692  0.01192906  0.49238410     2.39900
Eu118      Eu  0.00564095  0.94742261  0.49151207     2.39800
O119        O  0.03636237  0.97760881  0.46195530    -0.93100
O120        O  0.97121725  0.97671756  0.51726719    -0.92000
C121        C  0.00447419  0.93585375  0.56851321     1.02100
C122        C  0.00381394  0.92547772  0.41694325     1.00800
C123        C  0.92116123  0.00083997  0.56150549     1.00200
C124        C  0.07058196  0.01489788  0.57075330     1.02200
C125        C  0.08177047  0.01307168  0.41713989     1.01100
C126        C  0.93160507  0.99817922  0.40579633     1.00000
C127        C  0.93139030  0.92604059  0.49424652     1.00000
C128        C  0.08202647  0.93698343  0.49280761     1.02600
H129        H  0.96374713  0.95944699  0.44666968     0.30000
O130        O  0.97468810  0.97327967  0.45869607    -1.05300
H131        H  0.04415865  0.97005057  0.53516203     0.32100
O132        O  0.03176580  0.98086069  0.52153735    -1.07800
C133        C  0.23304037  0.24573902  0.49147317     0.80000
N134        N  0.22143325  0.23467192  0.51680858    -0.78300
C135        C  0.23044805  0.20863754  0.52827809     0.82400
N136        N  0.25162034  0.19330689  0.51353498    -0.78300
C137        C  0.26383035  0.20344184  0.48790335     0.82500
N138        N  0.25422020  0.22989614  0.47636336    -0.80000
C139        C  0.73019361  0.21739074  0.47877367     0.80000
N140        N  0.74580598  0.20526448  0.45614555    -0.78300
C141        C  0.77203326  0.21634821  0.44698154     0.82400
N142        N  0.78339200  0.23979092  0.46172865    -0.78300
C143        C  0.76866048  0.25257395  0.48458392     0.82500
N144        N  0.74183599  0.24127256  0.49349952    -0.80000
C145        C  0.73533235  0.74760660  0.50820687     0.80000
N146        N  0.75777776  0.76754225  0.50901885    -0.78300
C147        C  0.78617066  0.75906707  0.50523114     0.82400
N148        N  0.79238434  0.73032803  0.50044304    -0.78300
C149        C  0.77053536  0.70976653  0.49919641     0.82500
N150        N  0.74154014  0.71828149  0.50303949    -0.80000
C151        C  0.23268731  0.71830431  0.49647872     0.80000
N152        N  0.21516387  0.74266212  0.49556607    -0.78300
C153        C  0.22686790  0.76973840  0.49072887     0.82400
N154        N  0.25628131  0.77267761  0.48653145    -0.78300
C155        C  0.27435767  0.74879191  0.48702445     0.82500
N156        N  0.26267569  0.72122017  0.49211352    -0.80000
C157        C  0.73581469  0.01080004  0.21982057     0.80000
N158        N  0.76608796  0.01307239  0.22269863    -0.78300
C159        C  0.77802666  0.01502318  0.25062507     0.82400
N160        N  0.76006881  0.01417537  0.27453817    -0.78300
C161        C  0.73066073  0.01105575  0.27161197     0.82500
N162        N  0.71860795  0.00941626  0.24441430    -0.80000
O163        O  0.44913815  0.06001229  0.48249167    -0.80400
O164        O  0.45825758  0.89170485  0.49225581    -0.81900
O165        O  0.42880505  0.96931839  0.43142460    -0.79000
O166        O  0.40901435  0.97193919  0.52571079    -0.77300
O167        O  0.43687476  0.97630580  0.56778515    -0.79100
O168        O  0.47083388  0.97052957  0.40284851    -0.80100
O169        O  0.42095622  0.92417078  0.48203576    -0.81400
O170        O  0.41549640  0.02257163  0.47600446    -0.81700
Eu171      Eu  0.44217688  0.97509267  0.48336714     2.39200
O172        O  0.46735986  0.94784031  0.51969088    -0.89200
O173        O  0.47586209  0.00654346  0.45865613    -0.92800
C174        C  0.42272755  0.05029569  0.47712849     1.01900
C175        C  0.43112526  0.89766969  0.48619447     1.01700
C176        C  0.44268323  0.96759257  0.40648107     1.01700
C177        C  0.41215955  0.97308695  0.55398814     0.99500
H178        H  0.47014901  0.93231239  0.44714324     0.29300
O179        O  0.47904535  0.94610987  0.46081075    -1.01600
H180        H  0.44862275  0.01988245  0.52742611     0.29300
O181        O  0.46371611  0.00793172  0.51803767    -1.04100
O182        O  0.55263923  0.89641086  0.50304410    -0.81300
O183        O  0.54519480  0.06524644  0.50155501    -0.80900
O184        O  0.52058796  0.92728935  0.41395156    -0.79300
O185        O  0.48588002  0.93109802  0.57947226    -0.82700
O186        O  0.48524566  0.03016335  0.57728815    -0.80500
O187        O  0.51522944  0.02636362  0.41040137    -0.79200
O188        O  0.59354123  0.98070672  0.46412234    -0.80700
O189        O  0.57259143  0.98076299  0.55942564    -0.82600
O190        O  0.56449253  0.97969210  0.42260964    -0.79300
O191        O  0.53038455  0.97958611  0.58798911    -0.82000
O192        O  0.51341631  0.89264689  0.45014523    -0.77800
O193        O  0.50689428  0.06252205  0.44505215    -0.77800
O194        O  0.49028442  0.06474272  0.54054687    -0.77400
O195        O  0.49790294  0.89536995  0.54586071    -0.80900
O196        O  0.58693046  0.93264561  0.51074572    -0.80400
O197        O  0.58250706  0.03250516  0.50860767    -0.78700
Eu198      Eu  0.50428224  0.91904249  0.49705252     2.39800
Eu199      Eu  0.49824168  0.03855948  0.49330740     2.39600
Eu200      Eu  0.51270241  0.97734436  0.43603788     2.38400
Eu201      Eu  0.48899462  0.98008775  0.55414582     2.39900
Eu202      Eu  0.56050450  0.98159414  0.50675108     2.39800
O203        O  0.52343369  0.01074157  0.52945472    -0.93100
O204        O  0.53810413  0.94980405  0.47215689    -0.92000
C205        C  0.57924968  0.90499029  0.50827125     1.02100
C206        C  0.57274260  0.05939731  0.50616841     1.00800
C207        C  0.51899160  0.90009192  0.42306503     1.00200
C208        C  0.49077712  0.90375742  0.57228847     1.02200
C209        C  0.48673877  0.05729846  0.56798070     1.01100
C210        C  0.51245591  0.05383087  0.41834967     1.00000
C211        C  0.58960435  0.98041738  0.43591276     1.00000
C212        C  0.55860898  0.97905807  0.58435417     1.02600
H213        H  0.54880919  0.02208668  0.46043152     0.30000
O214        O  0.53495182  0.00930802  0.47063051    -1.05300
H215        H  0.53615518  0.93902542  0.54587705     0.32100
O216        O  0.52611666  0.95102109  0.53137005    -1.07800
C217        C  0.25726191  0.99337235  0.76227365     0.80000
N218        N  0.22768801  0.00058361  0.75992662    -0.78300
C219        C  0.21558844  0.00356556  0.73211505     0.82400
N220        N  0.23276519  0.99975968  0.70787500    -0.78300
C221        C  0.26148759  0.99274138  0.71046070     0.82500
N222        N  0.27359278  0.98957938  0.73743076    -0.80000
C223        C  0.73854382  0.00238913  0.76750242     0.80000
N224        N  0.76727448  0.00268308  0.75712267    -0.78300
C225        C  0.77308798  0.99128113  0.72943100     0.82400
N226        N  0.75061930  0.98008136  0.71326483    -0.78300
C227        C  0.72258545  0.98039547  0.72326404     0.82500
N228        N  0.71663378  0.99166102  0.75022671    -0.80000
C229        C  0.26755815  0.99954282  0.21836155     0.80000
N230        N  0.23983429  0.00440381  0.22958468    -0.78300
C231        C  0.23362048  0.99551762  0.25789109     0.82400
N232        N  0.25489494  0.98253380  0.27438531    -0.78300
C233        C  0.28246759  0.97864056  0.26348257     0.82500
N234        N  0.28871108  0.98724214  0.23555523    -0.80000
O235        O  0.58077674  0.01955873  0.03913394    -0.80400
O236        O  0.41228238  0.00266749  0.03303245    -0.81900
O237        O  0.48448912  0.06351361  0.06997417    -0.79000
O238        O  0.49472286  0.96873889  0.07773804    -0.77300
O239        O  0.50108482  0.93001530  0.04549108    -0.79100
O240        O  0.48047487  0.09606547  0.03113390    -0.80100
O241        O  0.44460184  0.01227889  0.07053711    -0.81400
O242        O  0.54559455  0.01723347  0.07531779    -0.81700
Eu243      Eu  0.49590854  0.01435016  0.04969332     2.39200
O244        O  0.47039301  0.97884075  0.02087809    -0.89200
O245        O  0.52384921  0.04536709  0.01824187    -0.92800
C246        C  0.57310974  0.01852150  0.06656781     1.01900
C247        C  0.41812226  0.00762509  0.06043680     1.01700
C248        C  0.47848212  0.08911586  0.05880547     1.01700
C249        C  0.49728350  0.94109480  0.07162694     0.99500
H250        H  0.44976868  0.04860919  0.02585261     0.29300
O251        O  0.46460827  0.03743241  0.01530209    -1.01600
H252        H  0.54251562  0.97406992  0.03640008     0.29300
O253        O  0.52947946  0.98433157  0.02294722    -1.04100
O254        O  0.41714788  0.99919890  0.93721273    -0.81300
O255        O  0.58507047  0.01473810  0.94488260    -0.80900
O256        O  0.43894041  0.08771650  0.98224992    -0.79300
O257        O  0.45689027  0.91972420  0.99532486    -0.82700
O258        O  0.55530110  0.92972012  0.99754772    -0.80500
O259        O  0.53865221  0.09882013  0.98640275    -0.79200
O260        O  0.48692618  0.04989656  0.90150303    -0.80700
O261        O  0.51222199  0.95423074  0.90980840    -0.82600
O262        O  0.48196632  0.08801686  0.93485672    -0.79300
O263        O  0.50996155  0.92133609  0.94833097    -0.82000
O264        O  0.40919074  0.04724956  0.98499379    -0.77800
O265        O  0.57663396  0.06555588  0.99080401    -0.77800
O266        O  0.58693617  0.96902364  0.99236958    -0.77400
O267        O  0.41893064  0.95250418  0.98963108    -0.80900
O268        O  0.45309120  0.99604617  0.90170802    -0.80400
O269        O  0.55256969  0.01250184  0.90639252    -0.78700
Eu270      Eu  0.43960735  0.00242960  0.98644441     2.39800
Eu271      Eu  0.55697497  0.01513576  0.99103331     2.39600
Eu272      Eu  0.49158766  0.06958161  0.98479475     2.38400
Eu273      Eu  0.50377741  0.94900118  0.99441990     2.39900
Eu274      Eu  0.50149162  0.00465971  0.92802785     2.39800
O275        O  0.53148175  0.98009713  0.96274792    -0.93100
O276        O  0.46801717  0.03316913  0.95604821    -0.92000
C277        C  0.42545712  0.99605535  0.91003938     1.02100
C278        C  0.57926616  0.01472195  0.91701277     1.00800
C279        C  0.41289750  0.07542606  0.98314363     1.00200
C280        C  0.42897082  0.92610459  0.99332118     1.02200
C281        C  0.58160343  0.94102651  0.99527463     1.01100
C282        C  0.56648935  0.09214575  0.98916111     1.00000
C283        C  0.47994933  0.07664465  0.90875085     1.00000
C284        C  0.51357537  0.92778478  0.92073120     1.02600
H285        H  0.53765377  0.05376756  0.94469257     0.30000
O286        O  0.52611805  0.04076719  0.95724297    -1.05300
H287        H  0.46269003  0.95872382  0.94780634     0.32100
O288        O  0.47326181  0.97316889  0.95948965    -1.07800
C289        C  0.49771380  0.20748973  0.25882780     0.80000
N290        N  0.47315259  0.19729865  0.24473414    -0.78300
C291        C  0.46034216  0.21257284  0.22230633     0.82400
N292        N  0.47283147  0.23848390  0.21393419    -0.78300
C293        C  0.49719809  0.24946446  0.22744666     0.82500
N294        N  0.51024543  0.23364010  0.24976217    -0.80000
C295        C  0.50447136  0.72320602  0.21955922     0.80000
N296        N  0.50098097  0.74774660  0.20252463    -0.78300
C297        C  0.50418077  0.77510853  0.21417364     0.82400
N298        N  0.51123397  0.77810214  0.24294366    -0.78300
C299        C  0.51497795  0.75422321  0.26054507     0.82500
N300        N  0.51162342  0.72634470  0.24897699    -0.80000
C301        C  0.51486799  0.71014937  0.76577061     0.80000
N302        N  0.50722034  0.72091962  0.73843024    -0.78300
C303        C  0.51178061  0.75027687  0.73225846     0.82400
N304        N  0.52215007  0.76845079  0.75361869    -0.78300
C305        C  0.52930552  0.75800436  0.78067557     0.82500
N306        N  0.52598318  0.72883650  0.78645176    -0.80000
C307        C  0.45978739  0.21749138  0.72057462     0.80000
N308        N  0.47134586  0.24337620  0.73147761    -0.78300
C309        C  0.45949340  0.25527061  0.75689663     0.82400
N310        N  0.43765266  0.24054035  0.77136955    -0.78900
C311        C  0.42655116  0.21471912  0.76108027     0.82500
N312        N  0.43791058  0.20359038  0.73568277    -0.80000
O313        O  0.00338314  0.41943819  0.02889123    -0.80400
O314        O  0.99905726  0.58713210  0.03960765    -0.81900
O315        O  0.05035884  0.50009314  0.07142669    -0.79000
O316        O  0.95269030  0.49456930  0.06955258    -0.77300
O317        O  0.91707500  0.49860067  0.03351657    -0.79100
O318        O  0.08699252  0.50218309  0.03597555    -0.80100
O319        O  0.99772052  0.55096581  0.07483871    -0.81400
O320        O  0.00554752  0.45097923  0.06778091    -0.81700
Eu321      Eu  0.00170217  0.50253412  0.04751749     2.39200
O322        O  0.97057069  0.53374938  0.01920301    -0.89200
O323        O  0.03257272  0.47549707  0.01504649    -0.92800
C324        C  0.00547011  0.42443215  0.05680610     1.01900
C325        C  0.99735261  0.57858916  0.06672242     1.01700
C326        C  0.07768587  0.49956130  0.06288518     1.01700
C327        C  0.92568867  0.49383318  0.06029825     0.99500
H328        H  0.04351003  0.54648815  0.03269071     0.29300
O329        O  0.03189131  0.53452491  0.01932462    -1.01600
H330        H  0.96095650  0.46064268  0.02523651     0.29300
O331        O  0.97282911  0.47465156  0.01425188    -1.04100
O332        O  0.00084233  0.59423133  0.94545291    -0.81300
O333        O  0.00144017  0.42445660  0.93380001    -0.80900
O334        O  0.08639178  0.55762382  0.99407499    -0.79300
O335        O  0.91662196  0.55500396  0.98573543    -0.82700
O336        O  0.91816530  0.45573900  0.98421436    -0.80500
O337        O  0.08816400  0.45721868  0.98273331    -0.79200
O338        O  0.05317293  0.51806357  0.90302397    -0.80700
O339        O  0.95655266  0.50923687  0.90041046    -0.82600
O340        O  0.08797418  0.51747112  0.94001899    -0.79300
O341        O  0.92062168  0.50457897  0.93630095    -0.82000
O342        O  0.04850442  0.59088227  0.99262681    -0.77800
O343        O  0.05141951  0.42242847  0.98168389    -0.77800
O344        O  0.95510683  0.42136992  0.98191124    -0.77400
O345        O  0.95230024  0.58991406  0.99028555    -0.80900
O346        O  0.00424461  0.56251772  0.90631054    -0.80400
O347        O  0.00315559  0.46104083  0.89884895    -0.78700
Eu348      Eu  0.00087005  0.56501584  0.99061054     2.39800
Eu349      Eu  0.00333808  0.44731254  0.98258645     2.39600
Eu350      Eu  0.06361331  0.50723956  0.98748047     2.38400
Eu351      Eu  0.94199185  0.50554604  0.98581303     2.39900
Eu352      Eu  0.00420240  0.51013343  0.92561405     2.39800
O353        O  0.97358460  0.47860942  0.95409349    -0.93100
O354        O  0.03242990  0.53794184  0.95932342    -0.92000
C355        C  0.00293154  0.58901888  0.91755529     1.02100
C356        C  0.00139117  0.43335155  0.90672053     1.00800
C357        C  0.07622843  0.58451886  0.99477711     1.00200
C358        C  0.92487251  0.58246463  0.98759930     1.02200
C359        C  0.92743437  0.42861028  0.98293264     1.01100
C360        C  0.07897120  0.42991927  0.98140414     1.00000
C361        C  0.07981953  0.52097773  0.91290471     1.00000
C362        C  0.92949532  0.50648427  0.90918310     1.02600
H363        H  0.04720172  0.46724529  0.94123803     0.30000
O364        O  0.03460409  0.47867112  0.95427178    -1.05300
H365        H  0.96011943  0.55016200  0.94562129     0.32100
O366        O  0.97235011  0.53717531  0.95736484    -1.07800
C367        C  0.76474667  0.46727910  0.26949700     0.80000
N368        N  0.78518702  0.45909923  0.24914541    -0.78300
C369        C  0.77939839  0.45987807  0.21999800     0.82400
N370        N  0.75226924  0.46817683  0.21088408    -0.78300
C371        C  0.73071900  0.47549253  0.23043671     0.82500
N372        N  0.73695221  0.47583987  0.26030599    -0.80000
C373        C  0.27456862  0.45770764  0.23534682     0.80000
N374        N  0.26649049  0.46320700  0.26413491    -0.78300
C375        C  0.23702507  0.46261971  0.27142780     0.82400
N376        N  0.21669473  0.45735599  0.25016891    -0.78300
C377        C  0.22430358  0.45264965  0.22169590     0.82500
N378        N  0.25338608  0.45320413  0.21465718    -0.80000
C379        C  0.27349994  0.50502527  0.76389003     0.80000
N380        N  0.26156690  0.49482701  0.73803184    -0.78300
C381        C  0.23658517  0.50816839  0.72735152     0.82400
N382        N  0.22335760  0.52994104  0.74323152    -0.78300
C383        C  0.23478943  0.53981303  0.76904834     0.82500
N384        N  0.25985540  0.52705274  0.77890951    -0.80000
C385        C  0.75258918  0.48841579  0.71400762     0.80000
N386        N  0.77288737  0.48873582  0.73586778    -0.78300
C387        C  0.76469935  0.49121515  0.76444214     0.82400
N388        N  0.73570873  0.49281210  0.77151585    -0.78300
C389        C  0.71470717  0.49191305  0.75017515     0.82500
N390        N  0.72298796  0.49018297  0.72089545    -0.80000
C391        C  0.21539213  0.25540246  0.00731527     0.80000
N392        N  0.23910780  0.27108108  0.01703143    -0.78300
C393        C  0.26487482  0.25737495  0.02343010     0.82400
N394        N  0.26710825  0.22796426  0.02011189    -0.78300
C395        C  0.24444984  0.21166627  0.00963339     0.82500
N396        N  0.21828743  0.22544089  0.00230693    -0.80000
O397        O  0.51267550  0.43167228  0.07987066    -0.80400
O398        O  0.49402044  0.43303070  0.91045465    -0.81900
O399        O  0.46190670  0.38888426  0.99777933    -0.79000
O400        O  0.55619067  0.40242747  0.98091288    -0.77300
O401        O  0.58737745  0.44257781  0.97829848    -0.79100
O402        O  0.42354877  0.42102259  0.00459196    -0.80100
O403        O  0.50302140  0.39630013  0.94381343    -0.81400
O404        O  0.51418396  0.39568018  0.04404769    -0.81700
Eu405      Eu  0.50658742  0.41951002  0.99441910     2.39200
O406        O  0.53010434  0.45432538  0.96358392    -0.89200
O407        O  0.47624603  0.44602729  0.02795024    -0.92800
C408        C  0.51513481  0.40449134  0.07145378     1.01900
C409        C  0.49805164  0.40561562  0.91700879     1.01700
C410        C  0.43425997  0.39472977  0.00180541     1.01700
C411        C  0.58123384  0.41489951  0.97507463     0.99500
H412        H  0.45792720  0.43312917  0.95683010     0.29300
O413        O  0.47010848  0.44632278  0.96836914    -1.01600
H414        H  0.55110094  0.44181510  0.03320819     0.29300
O415        O  0.53625590  0.45274538  0.02241938    -1.04100
O416        O  0.48861307  0.52865715  0.91248914    -0.81300
O417        O  0.50274199  0.52841682  0.07985848    -0.80900
O418        O  0.41132008  0.47394973  0.95422306    -0.79300
O419        O  0.57840350  0.49398584  0.93904195    -0.82700
O420        O  0.58826286  0.48994236  0.03909583    -0.80500
O421        O  0.42026404  0.47021611  0.05370660    -0.79200
O422        O  0.44011459  0.55581366  0.00067312    -0.80700
O423        O  0.53729365  0.56945406  0.98823565    -0.82600
O424        O  0.40916581  0.51643520  0.00769698    -0.79300
O425        O  0.57745196  0.53832305  0.98616075    -0.82000
O426        O  0.44481964  0.47860006  0.91620119    -0.77800
O427        O  0.45947627  0.47668780  0.08474207    -0.77800
O428        O  0.55453294  0.48485043  0.07665486    -0.77400
O429        O  0.53992051  0.48505365  0.90778653    -0.80900
O430        O  0.48386645  0.56440960  0.94760367    -0.80400
O431        O  0.49318174  0.56384751  0.04511102    -0.78700
Eu432      Eu  0.49422105  0.48029096  0.93681939     2.39800
Eu433      Eu  0.50527730  0.47966739  0.05522263     2.39600
Eu434      Eu  0.43974622  0.47251179  0.00186364     2.38400
Eu435      Eu  0.55980831  0.48744061  0.99091956     2.39900
Eu436      Eu  0.49201834  0.53979968  0.99617662     2.39800
O437        O  0.52855890  0.51393866  0.02337482    -0.93100
O438        O  0.46292237  0.50625085  0.96925576    -0.92000
C439        C  0.48481034  0.55585718  0.92025460     1.02100
C440        C  0.49775325  0.55548754  0.07208392     1.00800
C441        C  0.41829917  0.47648821  0.92637989     1.00200
C442        C  0.56731211  0.49135722  0.91269637     1.02200
C443        C  0.58118071  0.48867609  0.06709956     1.01100
C444        C  0.43156408  0.47299523  0.07995017     1.00000
C445        C  0.41433962  0.54434863  0.00573788     1.00000
C446        C  0.56521146  0.56402067  0.98479333     1.02600
H447        H  0.45688597  0.51673212  0.04246623     0.30000
O448        O  0.46920157  0.50595326  0.02869224    -1.05300
H449        H  0.53217280  0.52649002  0.95078309     0.32100
O450        O  0.52309952  0.51318377  0.96425084    -1.07800
C451        C  0.72254354  0.76972938  0.97578101     0.80000
N452        N  0.75175909  0.76195347  0.97927831    -0.78300
C453        C  0.76134456  0.73499357  0.96887868     0.82400
N454        N  0.74166236  0.71630166  0.95620261    -0.78300
C455        C  0.71282560  0.72330290  0.95302747     0.82500
N456        N  0.70378924  0.75010052  0.96283783    -0.80000
C457        C  0.27296670  0.76522256  0.99435459     0.80000
N458        N  0.24256709  0.76422477  0.99404120    -0.78300
C459        C  0.22862022  0.73736951  0.99163147     0.82400
N460        N  0.24489862  0.71227863  0.99032537    -0.78300
C461        C  0.27471716  0.71326472  0.99106885     0.82500
N462        N  0.28866490  0.73965239  0.99308781    -0.80000
C463        C  0.77105530  0.27157834  0.96067976     0.80000
N464        N  0.75723306  0.28593317  0.93843141    -0.78300
C465        C  0.73049321  0.27740483  0.92833283     0.82400
N466        N  0.71743488  0.25353922  0.94103574    -0.78300
C467        C  0.73073948  0.23822458  0.96313148     0.82500
N468        N  0.75756313  0.24768484  0.97378295    -0.80000
C469        C  0.71223691  0.29885914  0.91133127     0.01100
C470        C  0.72051545  0.32912156  0.91187877     0.03900
C471        C  0.69895508  0.35045852  0.91837264    -0.12200
C472        C  0.66913723  0.34183045  0.92035371     0.23200
C473        C  0.66044733  0.31330971  0.91137007    -0.12700
C474        C  0.68223286  0.29184279  0.90597493     0.04600
C475        C  0.64747304  0.36156753  0.93442127     0.27000
C476        C  0.64413870  0.36117636  0.96552828    -0.13400
C477        C  0.62259807  0.37899135  0.97911109     0.05100
C478        C  0.60403655  0.39643680  0.96148136    -0.09400
C479        C  0.60693286  0.39615864  0.93037284     0.05900
C480        C  0.62947315  0.37968652  0.91688166    -0.13700
Br481      Br  0.61899892  0.30290659  0.90989271    -0.05800
Br482      Br  0.76096665  0.34156297  0.90526749    -0.00200
Br483      Br  0.61776534  0.37901066  0.02158300     0.00300
Br484      Br  0.63601350  0.38197923  0.87460618    -0.04100
Br485      Br  0.67094369  0.25265705  0.89327666     0.00400
Br486      Br  0.71035274  0.39049948  0.92800319    -0.03400
Br487      Br  0.66900410  0.33619404  0.98943062    -0.04300
Br488      Br  0.57864837  0.41630383  0.90608585    -0.00300
C489        C  0.29158800  0.68573112  0.99358255     0.01100
C490        C  0.28783372  0.66772161  0.01889397     0.03900
C491        C  0.30531141  0.64236995  0.02243685    -0.12200
C492        C  0.32645212  0.63507548  0.00071753     0.23200
C493        C  0.32949028  0.65236812  0.97491778    -0.12700
C494        C  0.31205461  0.67780412  0.97136185     0.04600
C495        C  0.34690425  0.61032570  0.00580406     0.27000
C496        C  0.37384052  0.61569018  0.02028705    -0.13400
C497        C  0.39460773  0.59290285  0.02301069     0.05100
C498        C  0.38928939  0.56516107  0.00948069    -0.09400
C499        C  0.36075205  0.55894395  0.99784315     0.05900
C500        C  0.33970470  0.58176968  0.99586374    -0.13700
Br501      Br  0.35793373  0.64128887  0.94484055    -0.05800
Br502      Br  0.26006994  0.67844876  0.04967560    -0.00200
Br503      Br  0.42928139  0.59951181  0.04718741     0.00300
Br504      Br  0.30125717  0.57458796  0.97859487    -0.04100
Br505      Br  0.31578968  0.70146925  0.93594404     0.00400
Br506      Br  0.30105569  0.61796258  0.05735045    -0.03400
Br507      Br  0.38270617  0.65472388  0.03536057    -0.04300
Br508      Br  0.34956443  0.51986924  0.98442603    -0.00300
C509        C  0.58454681  0.58878152  0.97658823     0.01100
C510        C  0.58751057  0.59654442  0.94645196     0.03900
C511        C  0.60656061  0.61967245  0.93803498    -0.12200
C512        C  0.62259154  0.63512329  0.95980207     0.23200
C513        C  0.61996435  0.62697978  0.98993209    -0.12700
C514        C  0.60170336  0.60313013  0.99815794     0.04600
C515        C  0.64543042  0.65694536  0.95094541     0.27000
C516        C  0.67522016  0.64809578  0.94994625    -0.13400
C517        C  0.69779416  0.66929454  0.94651419     0.05100
C518        C  0.69044156  0.69998608  0.94519787    -0.09400
C519        C  0.66019886  0.70781331  0.94095121     0.05900
C520        C  0.63779743  0.68633340  0.94434654    -0.13700
Br521      Br  0.64250618  0.64765228  0.01973952    -0.05800
Br522      Br  0.56805501  0.57335767  0.91637422    -0.00200
Br523      Br  0.73800485  0.65460042  0.94325815     0.00300
Br524      Br  0.59655579  0.69709774  0.94070514    -0.04100
Br525      Br  0.60268840  0.58793894  0.03812492     0.00400
Br526      Br  0.61223517  0.62889849  0.89660837    -0.03400
Br527      Br  0.68483467  0.60656762  0.95440573    -0.04300
Br528      Br  0.64869996  0.74732496  0.92908976    -0.00300
C529        C  0.29230135  0.27432778  0.02460498     0.01100
C530        C  0.29906796  0.29202370  0.04925127     0.03900
C531        C  0.32471188  0.30967601  0.04868140    -0.12200
C532        C  0.34372633  0.30855264  0.02387256     0.23200
C533        C  0.33834270  0.28868391  0.00060326    -0.12700
C534        C  0.31213568  0.27234665  0.00039968     0.04600
C535        C  0.36705188  0.33075843  0.01955739     0.27000
C536        C  0.36054252  0.35578884  0.00229123    -0.13400
C537        C  0.38324028  0.37525077  0.99410747     0.05100
C538        C  0.41258766  0.37016973  0.00385691    -0.09400
C539        C  0.41946742  0.34310145  0.01820805     0.05900
C540        C  0.39640254  0.32421405  0.02733895    -0.13700
Br541      Br  0.36651635  0.28484527  0.96838712    -0.05800
Br542      Br  0.27345418  0.29157578  0.08353701    -0.00200
Br543      Br  0.37420485  0.40697446  0.96670654     0.00300
Br544      Br  0.40462862  0.28897623  0.05011319    -0.04100
Br545      Br  0.30278142  0.24920247  0.96563615     0.00400
Br546      Br  0.33374389  0.33552680  0.08135568    -0.03400
Br547      Br  0.32041348  0.36287853  0.98908768    -0.04300
Br548      Br  0.45978400  0.32958837  0.02283225    -0.00300
C549        C  0.68370213  0.49499241  0.76054589     0.01100
C550        C  0.67557237  0.52215094  0.77369483     0.03900
C551        C  0.65356212  0.52304352  0.79592950    -0.12200
C552        C  0.63887783  0.49684465  0.80454725     0.23200
C553        C  0.64422066  0.47046070  0.78870087    -0.12700
C554        C  0.66708196  0.46935615  0.76723463     0.04600
C555        C  0.62074045  0.49630283  0.83232801     0.27000
C556        C  0.63377184  0.48725040  0.85919919    -0.13400
C557        C  0.61712232  0.48690154  0.88580974     0.05100
C558        C  0.58679714  0.49537735  0.88576841    -0.09400
C559        C  0.57447040  0.50608672  0.85874486     0.05900
C560        C  0.59113616  0.50578763  0.83222960    -0.13700
Br561      Br  0.62158065  0.43545921  0.79819771    -0.05800
Br562      Br  0.69740792  0.55753841  0.76364981    -0.00200
Br563      Br  0.63673155  0.47428683  0.92166332     0.00300
Br564      Br  0.57334642  0.51794257  0.79529833    -0.04100
Br565      Br  0.67826085  0.43202884  0.74989747     0.00400
Br566      Br  0.64549913  0.55958019  0.81657033    -0.03400
Br567      Br  0.67473519  0.47477307  0.85921064    -0.04300
Br568      Br  0.53549669  0.52366210  0.85738307    -0.00300
C569        C  0.29744670  0.48984656  0.77998222     0.01100
C570        C  0.32683743  0.49972241  0.77636766     0.03900
C571        C  0.34718894  0.49709431  0.79991851    -0.12200
C572        C  0.33833894  0.48371003  0.82684413     0.23200
C573        C  0.30961665  0.47172531  0.82949918    -0.12700
C574        C  0.28936036  0.47460748  0.80609241     0.04600
C575        C  0.35887006  0.48210954  0.85257419     0.27000
C576        C  0.37424888  0.45565274  0.85843146    -0.13400
C577        C  0.39197336  0.45315902  0.88392652     0.05100
C578        C  0.39492063  0.47731857  0.90353168    -0.09400
C579        C  0.38053969  0.50425142  0.89696133     0.05900
C580        C  0.36211592  0.50646796  0.87187822    -0.13700
Br581      Br  0.29715477  0.45374934  0.86632725    -0.05800
Br582      Br  0.33832454  0.51852591  0.73976050    -0.00200
Br583      Br  0.41351343  0.41700829  0.89123547     0.00300
Br584      Br  0.34226394  0.54324813  0.86327075    -0.04100
Br585      Br  0.24922284  0.46045910  0.81088554     0.00400
Br586      Br  0.38632832  0.51390216  0.79625752    -0.03400
Br587      Br  0.37196992  0.42331816  0.83060877    -0.04300
Br588      Br  0.38872039  0.53905949  0.92031870    -0.00300
C589        C  0.30543891  0.45952022  0.22421603     0.01100
C590        C  0.31725930  0.43469127  0.20931934     0.03900
C591        C  0.34036215  0.43814796  0.18849127    -0.12200
C592        C  0.35257612  0.46640324  0.18298921     0.23200
C593        C  0.34266495  0.49079360  0.19995176    -0.12700
C594        C  0.31872087  0.48748485  0.21999735     0.04600
C595        C  0.37361749  0.47056233  0.15752644     0.27000
C596        C  0.40302668  0.46041137  0.15937285    -0.13400
C597        C  0.42127620  0.45965470  0.13386558     0.05100
C598        C  0.41145196  0.47220318  0.10667507    -0.09400
C599        C  0.38272570  0.48495938  0.10586559     0.05900
C600        C  0.36345905  0.48253292  0.13053503    -0.13700
Br601      Br  0.36061530  0.52911709  0.19421800    -0.05800
Br602      Br  0.29974343  0.39615203  0.21554573    -0.00200
Br603      Br  0.45880977  0.43925980  0.13662881     0.00300
Br604      Br  0.32255636  0.49460785  0.12702944    -0.04100
Br605      Br  0.30141824  0.52189548  0.23850561     0.00400
Br606      Br  0.35328575  0.40453987  0.16537889    -0.03400
Br607      Br  0.41817193  0.44737582  0.19714650    -0.04300
Br608      Br  0.36999220  0.50807755  0.07226523    -0.00300
C609        C  0.70203077  0.48441702  0.21690023     0.01100
C610        C  0.67963627  0.46295789  0.21292884     0.03900
C611        C  0.65928927  0.46541842  0.18916697    -0.12200
C612        C  0.66147763  0.48915126  0.16878274     0.23200
C613        C  0.68273502  0.51147599  0.17384715    -0.12700
C614        C  0.70233195  0.50944120  0.19809875     0.04600
C615        C  0.64206363  0.49041901  0.14171628     0.27000
C616        C  0.64957478  0.47447108  0.11579708    -0.13400
C617        C  0.63075464  0.47488060  0.09065605     0.05100
C618        C  0.60434792  0.49178703  0.09089578    -0.09400
C619        C  0.59827115  0.50958848  0.11616881     0.05900
C620        C  0.61674723  0.50861816  0.14137996    -0.13700
Br621      Br  0.68684790  0.54349949  0.14583866    -0.05800
Br622      Br  0.67874664  0.42882623  0.23853728    -0.00200
Br623      Br  0.64088120  0.45129671  0.05654069     0.00300
Br624      Br  0.60757476  0.53259457  0.17563286    -0.04100
Br625      Br  0.73178622  0.53978554  0.20423855     0.00400
Br626      Br  0.62966061  0.43523700  0.18326783    -0.03400
Br627      Br  0.68617434  0.45247330  0.11475304    -0.04300
Br628      Br  0.56529989  0.53679816  0.11612043    -0.00300
C629        C  0.90184921  0.60735111  0.98666732     0.01100
C630        C  0.87099998  0.60189792  0.99166598     0.03900
C631        C  0.85010254  0.62541405  0.99110438    -0.12200
C632        C  0.85923497  0.65489736  0.98630813     0.23200
C633        C  0.88958722  0.66079035  0.98258746    -0.12700
C634        C  0.91051819  0.63746493  0.98123560     0.04600
C635        C  0.83686090  0.67941144  0.98249996     0.27000
C636        C  0.82971836  0.68956057  0.95377664    -0.13400
C637        C  0.80760711  0.71130667  0.94973822     0.05100
C638        C  0.79149884  0.72257590  0.97419152    -0.09400
C639        C  0.79973879  0.71367235  0.00300451     0.05900
C640        C  0.82265180  0.69263365  0.00715523    -0.13700
Br641      Br  0.90228078  0.70160876  0.97964923    -0.05800
Br642      Br  0.85581514  0.56253561  0.99908470    -0.00200
Br643      Br  0.79827507  0.72491520  0.91030775     0.00300
Br644      Br  0.83402753  0.68120677  0.04662959    -0.04100
Br645      Br  0.95027697  0.64835058  0.96898908     0.00400
Br646      Br  0.80841306  0.61740075  0.99702302    -0.03400
Br647      Br  0.84916402  0.67242545  0.91966551    -0.04300
Br648      Br  0.77763689  0.72810951  0.03666610    -0.00300
C649        C  0.90493027  0.40391778  0.98246901     0.01100
C650        C  0.90964281  0.37728446  0.99864120     0.03900
C651        C  0.88895325  0.35381509  0.99735703    -0.12200
C652        C  0.86288563  0.35663237  0.98066038     0.23200
C653        C  0.85780561  0.38304593  0.96477162    -0.12700
C654        C  0.87897268  0.40619202  0.96497536     0.04600
C655        C  0.84161795  0.33119502  0.97857963     0.27000
C656        C  0.84396848  0.31088625  0.95496973    -0.13400
C657        C  0.82269339  0.28824925  0.95156682     0.05100
C658        C  0.79865560  0.28571912  0.97154560    -0.09400
C659        C  0.79738899  0.30487247  0.99625960     0.05900
C660        C  0.81897728  0.32730737  0.99993093    -0.13700
Br661      Br  0.82174255  0.38729604  0.94238146    -0.05800
Br662      Br  0.94409148  0.37209164  0.02316507    -0.00200
Br663      Br  0.82503129  0.26181089  0.91806258     0.00300
Br664      Br  0.81686826  0.35372715  0.03342548    -0.04100
Br665      Br  0.87348605  0.43942890  0.93858457     0.00400
Br666      Br  0.89634128  0.31715551  0.01812668    -0.03400
Br667      Br  0.87569239  0.31502024  0.92647577    -0.04300
Br668      Br  0.76434832  0.30240664  0.02336044    -0.00300
C669        C  0.19624450  0.73309690  0.99447349     0.01100
C670        C  0.18012021  0.72559441  0.96887185     0.03900
C671        C  0.15628232  0.70538256  0.97069430    -0.12200
C672        C  0.14952689  0.69146606  0.99794249     0.23200
C673        C  0.16315375  0.70191669  0.02406437    -0.12700
C674        C  0.18566025  0.72354415  0.02229222     0.04600
C675        C  0.13131178  0.66370996  0.99844592     0.27000
C676        C  0.10258208  0.66350756  0.01056273    -0.13400
C677        C  0.08651244  0.63678571  0.01256397     0.05100
C678        C  0.09689741  0.61059347  0.99831807    -0.09400
C679        C  0.12590572  0.61099797  0.98600100     0.05900
C680        C  0.14339628  0.63700292  0.98750026    -0.13700
Br681      Br  0.15375923  0.68418085  0.06185687    -0.05800
Br682      Br  0.19323514  0.74031950  0.93096261    -0.00200
Br683      Br  0.05179215  0.63624626  0.03775712     0.00300
Br684      Br  0.18442391  0.63611684  0.97501411    -0.04100
Br685      Br  0.20499488  0.73746293  0.05766998     0.00400
Br686      Br  0.13457647  0.69461099  0.93556229    -0.03400
Br687      Br  0.08484850  0.70012480  0.02379275    -0.04300
Br688      Br  0.14204419  0.57691407  0.96588042    -0.00300
C689        C  0.18926475  0.27317047  0.99776708     0.01100
C690        C  0.19147123  0.28951559  0.97115311     0.03900
C691        C  0.17300867  0.31425963  0.96605938    -0.12200
C692        C  0.15138391  0.32258425  0.98719222     0.23200
C693        C  0.14747401  0.30474894  0.01269147    -0.12700
C694        C  0.16694443  0.28083574  0.01842393     0.04600
C695        C  0.13438832  0.35110860  0.98377207     0.27000
C696        C  0.14227926  0.37636165  0.00052189    -0.13400
C697        C  0.12548446  0.40281991  0.99870511     0.05100
C698        C  0.10067539  0.40459474  0.97965702    -0.09400
C699        C  0.09446860  0.37996941  0.96105481     0.05900
C700        C  0.11067933  0.35330447  0.96364812    -0.13700
Br701      Br  0.11604509  0.31395444  0.04031602    -0.05800
Br702      Br  0.22210884  0.27968241  0.94289151    -0.00200
Br703      Br  0.13629400  0.43601076  0.02327461     0.00300
Br704      Br  0.09989512  0.31933554  0.94006893    -0.04100
Br705      Br  0.16513978  0.26059670  0.05599263     0.00400
Br706      Br  0.17894982  0.33809017  0.93104747    -0.03400
Br707      Br  0.17627245  0.37450100  0.02628088    -0.04300
Br708      Br  0.06472258  0.38295456  0.93051067    -0.00300
C709        C  0.90635227  0.50589154  0.88679968     0.01100
C710        C  0.90508454  0.48269740  0.86598906     0.03900
C711        C  0.88041420  0.48017592  0.84746823    -0.12200
C712        C  0.85719889  0.50078253  0.84993381     0.23200
C713        C  0.85895980  0.52456077  0.86996346    -0.12700
C714        C  0.88386392  0.52739642  0.88805296     0.04600
C715        C  0.83246388  0.49917736  0.82915698     0.27000
C716        C  0.83314810  0.51725390  0.80385928    -0.13400
C717        C  0.81028726  0.51539316  0.78320710     0.05100
C718        C  0.78740152  0.49438298  0.78722433    -0.09400
C719        C  0.78695324  0.47597810  0.81248338     0.05900
C720        C  0.80934438  0.47874249  0.83375239    -0.13700
Br721      Br  0.82752666  0.55344188  0.87219224    -0.05800
Br722      Br  0.93669744  0.45425944  0.86279947    -0.00200
Br723      Br  0.81040628  0.54253640  0.75010132     0.00300
Br724      Br  0.80912881  0.45392348  0.86861422    -0.04100
Br725      Br  0.88820213  0.56172555  0.91320033     0.00400
Br726      Br  0.87844447  0.44886342  0.81834314    -0.03400
Br727      Br  0.86616494  0.54381802  0.79704450    -0.04300
Br728      Br  0.75718556  0.44550831  0.81698946    -0.00300
C729        C  0.21604412  0.55740894  0.78994277     0.01100
C730        C  0.22371926  0.55882220  0.82043778     0.03900
C731        C  0.20117897  0.55873304  0.84197278    -0.12200
C732        C  0.17140818  0.55981855  0.83309798     0.23200
C733        C  0.16435531  0.56588834  0.80340571    -0.12700
C734        C  0.18677961  0.56526935  0.78173898     0.04600
C735        C  0.14791128  0.55020869  0.85379373     0.27000
C736        C  0.14330783  0.51961892  0.85833781    -0.13400
C737        C  0.12096929  0.50992467  0.87778535     0.05100
C738        C  0.10269728  0.53072864  0.89194034    -0.09400
C739        C  0.10725852  0.56126520  0.88736976     0.05900
C740        C  0.13011213  0.57106607  0.86857493    -0.13700
Br741      Br  0.12359008  0.57187125  0.79210586    -0.05800
Br742      Br  0.26445470  0.56040829  0.83353963    -0.00200
Br743      Br  0.11573099  0.46830391  0.88564167     0.00300
Br744      Br  0.13740220  0.61286047  0.86338140    -0.04100
Br745      Br  0.17658555  0.57437292  0.74114288     0.00400
Br746      Br  0.21066864  0.55373429  0.88338305    -0.03400
Br747      Br  0.16766054  0.49097527  0.83786675    -0.04300
Br748      Br  0.08256304  0.58965033  0.90736815    -0.00300
C749        C  0.20128365  0.45321585  0.19794303     0.01100
C750        C  0.17139429  0.46127072  0.20466284     0.03900
C751        C  0.15245204  0.47052370  0.18189525    -0.12200
C752        C  0.16232805  0.47035858  0.15240628     0.23200
C753        C  0.19050342  0.45950532  0.14514589    -0.12700
C754        C  0.20969287  0.45004744  0.16762946     0.04600
C755        C  0.14157850  0.47822370  0.12866610     0.27000
C756        C  0.12248703  0.45628854  0.11768238    -0.13400
C757        C  0.10165500  0.46360428  0.09608736     0.05100
C758        C  0.09985022  0.49283001  0.08542768    -0.09400
C759        C  0.11965114  0.51464219  0.09562157     0.05900
C760        C  0.14061778  0.50728836  0.11738434    -0.13700
Br761      Br  0.20263541  0.45798088  0.10401356    -0.05800
Br762      Br  0.15420519  0.45852762  0.24404082    -0.00200
Br763      Br  0.07656221  0.43306334  0.08014162     0.00300
Br764      Br  0.16823359  0.53658212  0.13160586    -0.04100
Br765      Br  0.24606081  0.43070981  0.15547241     0.00400
Br766      Br  0.11266996  0.48395517  0.19084122    -0.03400
Br767      Br  0.12527923  0.41605280  0.13199631    -0.04300
Br768      Br  0.11777685  0.55434985  0.08002712    -0.00300
C769        C  0.90311213  0.48519117  0.08184385     0.01100
C770        C  0.88177359  0.50573274  0.09134534     0.03900
C771        C  0.86118268  0.49750996  0.11315973    -0.12200
C772        C  0.86251451  0.46899475  0.12575181     0.23200
C773        C  0.88343176  0.44824670  0.11583283    -0.12700
C774        C  0.90332395  0.45618129  0.09334961     0.04600
C775        C  0.84343943  0.46189783  0.15109901     0.27000
C776        C  0.85128511  0.47258550  0.17920246    -0.13400
C777        C  0.83114888  0.47032075  0.20275409     0.05100
C778        C  0.80335466  0.45636971  0.19815039    -0.09400
C779        C  0.79710251  0.44284894  0.17063961     0.05900
C780        C  0.81680448  0.44641259  0.14684809    -0.13700
Br781      Br  0.88563250  0.40958983  0.13403354    -0.05800
Br782      Br  0.88185662  0.54545185  0.07569939    -0.00200
Br783      Br  0.84147365  0.48932090  0.23977736     0.00300
Br784      Br  0.80648525  0.43205123  0.10793965    -0.04100
Br785      Br  0.93017465  0.42700158  0.07780212     0.00400
Br786      Br  0.83199368  0.52561518  0.12688520    -0.03400
Br787      Br  0.88889657  0.49249757  0.18456165    -0.04300
Br788      Br  0.76163112  0.41942383  0.16529460    -0.00300
C789        C  0.47179258  0.28176071  0.77221943     0.01100
C790        C  0.45280054  0.30593622  0.77820361     0.03900
C791        C  0.46016860  0.32697927  0.80009143    -0.12200
C792        C  0.48627985  0.32378882  0.81682883     0.23200
C793        C  0.50616941  0.30072743  0.80975920    -0.12700
C794        C  0.49887471  0.27967958  0.78770572     0.04600
C795        C  0.49158493  0.34369732  0.84289146     0.27000
C796        C  0.50472076  0.37163935  0.83886220    -0.13400
C797        C  0.50706065  0.39169539  0.86279051     0.05100
C798        C  0.49654504  0.38382620  0.89165991    -0.09400
C799        C  0.48284732  0.35572804  0.89530822     0.05900
C800        C  0.48083571  0.33576415  0.87120264    -0.13700
Br801      Br  0.54277357  0.29734739  0.83136493    -0.05800
Br802      Br  0.41544071  0.30907940  0.75780396    -0.00200
Br803      Br  0.52397797  0.43020756  0.85437108     0.00300
Br804      Br  0.46208394  0.29764906  0.87642677    -0.04100
Br805      Br  0.52440437  0.24610945  0.78119486     0.00400
Br806      Br  0.43380306  0.35963101  0.80827112    -0.03400
Br807      Br  0.51863782  0.38264974  0.79981238    -0.04300
Br808      Br  0.46321040  0.34548918  0.93203829    -0.00300
C809        C  0.50673685  0.68007455  0.77627868     0.01100
C810        C  0.52938576  0.66064667  0.78542193     0.03900
C811        C  0.52340998  0.63828790  0.80650604    -0.12200
C812        C  0.49472853  0.63540936  0.81879572     0.23200
C813        C  0.47141296  0.65257350  0.80712087    -0.12700
C814        C  0.47742592  0.67482041  0.78596160     0.04600
C815        C  0.48964608  0.61608047  0.84531369     0.27000
C816        C  0.47601313  0.58824970  0.84236616    -0.13400
C817        C  0.47174650  0.56993662  0.86738160     0.05100
C818        C  0.48285589  0.57838065  0.89564442    -0.09400
C819        C  0.49483698  0.60736278  0.89877535     0.05900
C820        C  0.49812643  0.62594183  0.87372158    -0.13700
Br821      Br  0.43146732  0.64688683  0.82147564    -0.05800
Br822      Br  0.56895423  0.66593498  0.77006039    -0.00200
Br823      Br  0.44902582  0.53399248  0.86236729     0.00300
Br824      Br  0.51481331  0.66513001  0.87808699    -0.04100
Br825      Br  0.44587934  0.70014058  0.77262487     0.00400
Br826      Br  0.55469204  0.61238441  0.81965226    -0.03400
Br827      Br  0.46396005  0.57485401  0.80358511    -0.04300
Br828      Br  0.50754321  0.62247447  0.93678111    -0.00300
C829        C  0.49737213  0.57861630  0.09580429     0.01100
C830        C  0.51131542  0.60639316  0.09113730     0.03900
C831        C  0.51170979  0.62782270  0.11385464    -0.12200
C832        C  0.49792238  0.62209962  0.14134005     0.23200
C833        C  0.48333088  0.59490459  0.14588133    -0.12700
C834        C  0.48311105  0.57318912  0.12337749     0.04600
C835        C  0.49773744  0.64538558  0.16485814     0.27000
C836        C  0.52153923  0.64796476  0.18487849    -0.13400
C837        C  0.52345049  0.67265966  0.20407763     0.05100
C838        C  0.50046218  0.69390378  0.20477483    -0.09400
C839        C  0.47528132  0.68949457  0.18663237     0.05900
C840        C  0.47439836  0.66597866  0.16614626    -0.13700
Br841      Br  0.46297945  0.58789469  0.18292458    -0.05800
Br842      Br  0.53066820  0.61558539  0.05399738    -0.00200
Br843      Br  0.55887052  0.67864124  0.22702460     0.00300
Br844      Br  0.44178137  0.66260448  0.13876981    -0.04100
Br845      Br  0.46144073  0.53690631  0.13023575     0.00400
Br846      Br  0.53090604  0.66550833  0.10729610    -0.03400
Br847      Br  0.55178853  0.61783917  0.18526393    -0.04300
Br848      Br  0.44163068  0.71571902  0.18978763    -0.00300
C849        C  0.51154392  0.27515923  0.21270901     0.01100
C850        C  0.49958208  0.30373858  0.21652724     0.03900
C851        C  0.50475476  0.32602030  0.19508687    -0.12200
C852        C  0.52077880  0.31949910  0.16888060     0.23200
C853        C  0.53409641  0.29136768  0.16591111    -0.12700
C854        C  0.53001417  0.26959306  0.18804716     0.04600
C855        C  0.52034651  0.34075210  0.14323228     0.27000
C856        C  0.49419903  0.34390949  0.12640897    -0.13400
C857        C  0.49268400  0.36485163  0.10328070     0.05100
C858        C  0.51771240  0.38184872  0.09540746    -0.09400
C859        C  0.54385313  0.37904797  0.11237659     0.05900
C860        C  0.54521869  0.35848169  0.13608860    -0.13700
Br861      Br  0.55521778  0.28146832  0.13004043    -0.05800
Br862      Br  0.47387704  0.31141396  0.24986610    -0.00200
Br863      Br  0.45511022  0.37295379  0.08484220     0.00300
Br864      Br  0.58088885  0.35498035  0.15922558    -0.04100
Br865      Br  0.54702581  0.23072389  0.18313793     0.00400
Br866      Br  0.48778488  0.36487813  0.20031871    -0.03400
Br867      Br  0.46002435  0.31969293  0.13527725    -0.04300
Br868      Br  0.57730291  0.40435498  0.10396600    -0.00300
C869        C  0.58919008  0.11610511  0.99061513     0.01100
C870        C  0.59237574  0.13677245  0.96733179     0.03900
C871        C  0.61690518  0.15626305  0.96673396    -0.12200
C872        C  0.63875661  0.15486218  0.98903018     0.23200
C873        C  0.63514000  0.13491249  0.01271998    -0.12700
C874        C  0.61031975  0.11594729  0.01375680     0.04600
C875        C  0.66553329  0.17432816  0.98737602     0.27000
C876        C  0.69098702  0.16509997  0.97163498    -0.13400
C877        C  0.71440784  0.18521868  0.96618590     0.05100
C878        C  0.71293174  0.21436864  0.97725909    -0.09400
C879        C  0.68884477  0.22242271  0.99561148     0.05900
C880        C  0.66518576  0.20257423  0.00055586    -0.13700
Br881      Br  0.66474249  0.13321947  0.04341735    -0.05800
Br882      Br  0.56438006  0.13709452  0.93514447    -0.00200
Br883      Br  0.74765301  0.17356873  0.94199449     0.00300
Br884      Br  0.63169269  0.21432512  0.02449212    -0.04100
Br885      Br  0.60505634  0.09023039  0.04753113     0.00400
Br886      Br  0.62107573  0.18457349  0.93496410    -0.03400
Br887      Br  0.69321399  0.12507828  0.95699846    -0.04300
Br888      Br  0.68759254  0.26142665  0.01267210    -0.00300
C889        C  0.40629365  0.90197841  0.99565153     0.01100
C890        C  0.38025541  0.90653977  0.01279364     0.03900
C891        C  0.35690793  0.88583008  0.01221185    -0.12200
C892        C  0.36014303  0.85896044  0.99681634     0.23200
C893        C  0.38675287  0.85338564  0.98115564    -0.12700
C894        C  0.40926779  0.87520214  0.97963762     0.04600
C895        C  0.33552767  0.83667775  0.99737505     0.27000
C896        C  0.33151374  0.81814572  0.02226035    -0.13400
C897        C  0.30903697  0.79641014  0.02231148     0.05100
C898        C  0.29012254  0.79312681  0.99763939    -0.09400
C899        C  0.29272576  0.81306482  0.97373155     0.05900
C900        C  0.31542046  0.83468535  0.97353660    -0.13700
Br901      Br  0.39227972  0.81573818  0.96180197    -0.05800
Br902      Br  0.37674500  0.94014895  0.03896541    -0.00200
Br903      Br  0.30422123  0.77070044  0.05620688     0.00300
Br904      Br  0.31933170  0.86144688  0.94044870    -0.04100
Br905      Br  0.44298266  0.86901549  0.95386761     0.00400
Br906      Br  0.31990518  0.89454653  0.03202173    -0.03400
Br907      Br  0.35718792  0.82224971  0.05613363    -0.04300
Br908      Br  0.26609136  0.80974042  0.94063227    -0.00300
C909        C  0.60747994  0.92025956  0.99559381     0.01100
C910        C  0.62309014  0.91379639  0.96914544     0.03900
C911        C  0.64448862  0.89086120  0.96849632    -0.12200
C912        C  0.65319074  0.87654160  0.99499042     0.23200
C913        C  0.64000822  0.88570390  0.02198471    -0.12700
C914        C  0.61606270  0.90592897  0.02201991     0.04600
C915        C  0.67339068  0.84986809  0.99417849     0.27000
C916        C  0.66177717  0.82161190  0.00088983    -0.13400
C917        C  0.67999585  0.79634879  0.99964948     0.05100
C918        C  0.70894383  0.79789545  0.98743793    -0.09400
C919        C  0.72132282  0.82626752  0.98230773     0.05900
C920        C  0.70386109  0.85215445  0.98665721    -0.13700
Br921      Br  0.65470570  0.87027753  0.05899816    -0.05800
Br922      Br  0.61409201  0.93541220  0.93335898    -0.00200
Br923      Br  0.66551002  0.75967155  0.01653425     0.00300
Br924      Br  0.72152215  0.89079003  0.98223497    -0.04100
Br925      Br  0.59448253  0.91335905  0.05824575     0.00400
Br926      Br  0.66000638  0.87756969  0.93088286    -0.03400
Br927      Br  0.62012004  0.81675517  0.00980637    -0.04300
Br928      Br  0.76169437  0.82995691  0.96876584    -0.00300
C929        C  0.38492183  0.09413638  0.98188903     0.01100
C930        C  0.38448725  0.12414993  0.99161449     0.03900
C931        C  0.35767096  0.14049604  0.99179522    -0.12200
C932        C  0.33050807  0.12679454  0.98470623     0.23200
C933        C  0.33055534  0.09722369  0.97524273    -0.12700
C934        C  0.35743158  0.08144562  0.97228239     0.04600
C935        C  0.30175401  0.14285705  0.98949143     0.27000
C936        C  0.28928817  0.14418318  0.01814539    -0.13400
C937        C  0.26526048  0.16330893  0.02405335     0.05100
C938        C  0.25302979  0.18101262  0.00131636    -0.09400
C939        C  0.26260754  0.17607801  0.97188237     0.05900
C940        C  0.28736198  0.15768089  0.96604162    -0.13700
Br941      Br  0.29308976  0.07788279  0.96779823    -0.05800
Br942      Br  0.41951149  0.14325152  0.00708216    -0.00200
Br943      Br  0.25191947  0.16887059  0.06431776     0.00300
Br944      Br  0.30311100  0.15470199  0.92638246    -0.04100
Br945      Br  0.35486383  0.04256936  0.95414751     0.00400
Br946      Br  0.35770557  0.18191322  0.00248751    -0.03400
Br947      Br  0.30676466  0.12137183  0.04975403    -0.04300
Br948      Br  0.24406603  0.19749892  0.94005342    -0.00300
C949        C  0.46590497  0.09509798  0.88612444     0.01100
C950        C  0.48303804  0.11087717  0.86551895     0.03900
C951        C  0.46905496  0.13036342  0.84575419    -0.12200
C952        C  0.43789271  0.13326833  0.84620278     0.23200
C953        C  0.42067422  0.11598827  0.86545938    -0.12700
C954        C  0.43473447  0.09717924  0.88559469     0.04600
C955        C  0.42324284  0.15323692  0.82515557     0.27000
C956        C  0.41535986  0.18215776  0.83368939    -0.13400
C957        C  0.40786171  0.20286381  0.81176570     0.05100
C958        C  0.41022644  0.19467534  0.78161259    -0.09400
C959        C  0.40939944  0.16420049  0.77458227     0.05900
C960        C  0.41790211  0.14357226  0.79608461    -0.13700
Br961      Br  0.37790488  0.11729140  0.86321249    -0.05800
Br962      Br  0.52529823  0.10493600  0.86401114    -0.00200
Br963      Br  0.39615720  0.24245384  0.82289611     0.00300
Br964      Br  0.42511875  0.10288049  0.78528247    -0.04100
Br965      Br  0.41104130  0.07292663  0.91104903     0.00400
Br966      Br  0.49243749  0.15264977  0.81775565    -0.03400
Br967      Br  0.41732180  0.19391691  0.87472286    -0.04300
Br968      Br  0.39845302  0.15083413  0.73551059    -0.00300
C969        C  0.51958839  0.90288145  0.90015109     0.01100
C970        C  0.53934155  0.87982119  0.90829840     0.03900
C971        C  0.54500987  0.85640117  0.88867718    -0.12200
C972        C  0.52991488  0.85488978  0.86164062     0.23200
C973        C  0.50989060  0.87726230  0.85350091    -0.12700
C974        C  0.50500559  0.90147383  0.87244424     0.04600
C975        C  0.53305767  0.82832389  0.84298030     0.27000
C976        C  0.55268133  0.82834604  0.81871977    -0.13400
C977        C  0.55341382  0.80395303  0.79946254     0.05100
C978        C  0.53464089  0.77940804  0.80469520    -0.09400
C979        C  0.51675604  0.77855274  0.83056333     0.05900
C980        C  0.51571218  0.80323372  0.84936446    -0.13700
Br981      Br  0.48813274  0.87377407  0.81687552    -0.05800
Br982      Br  0.55859528  0.87890858  0.94633528    -0.00200
Br983      Br  0.57987622  0.80449177  0.76569534     0.00300
Br984      Br  0.48895715  0.80365567  0.88296593    -0.04100
Br985      Br  0.47626162  0.93103886  0.86102449     0.00400
Br986      Br  0.57297544  0.82562162  0.89887477    -0.03400
Br987      Br  0.57754829  0.86239236  0.81141974    -0.04300
Br988      Br  0.49137101  0.74516496  0.83961058    -0.00300
C989        C  0.50139591  0.80168002  0.19574176     0.01100
C990        C  0.48230035  0.82482251  0.20470276     0.03900
C991        C  0.48134210  0.85118631  0.18828976    -0.12200
C992        C  0.49897832  0.85407210  0.16271992     0.23200
C993        C  0.51804513  0.83110907  0.15377381    -0.12700
C994        C  0.51936710  0.80493212  0.17031420     0.04600
C995        C  0.49530297  0.87955764  0.14294427     0.27000
C996        C  0.47347671  0.87809062  0.12085382    -0.13400
C997        C  0.47383019  0.89858074  0.09760741     0.05100
C998        C  0.49583552  0.92069723  0.09673171    -0.09400
C999        C  0.51630394  0.92351628  0.12012269     0.05900
C1000       C  0.51616937  0.90270310  0.14316927    -0.13700
Br1001     Br  0.54189341  0.83545022  0.11830692    -0.05800
Br1002     Br  0.45605479  0.81987781  0.23828264    -0.00200
Br1003     Br  0.44398587  0.89630561  0.06726685     0.00300
Br1004     Br  0.54564549  0.90457789  0.17397286    -0.04100
Br1005     Br  0.54661581  0.77416953  0.15840790     0.00400
Br1006     Br  0.45544057  0.88310594  0.20010642    -0.03400
Br1007     Br  0.44417653  0.84685209  0.12167104    -0.04300
Br1008     Br  0.54579784  0.95457221  0.11974642    -0.00300
C1009       C  0.46652866  0.11159372  0.07907059     0.01100
C1010       C  0.48554661  0.13180078  0.09298897     0.03900
C1011       C  0.47415949  0.15128923  0.11444806    -0.12200
C1012       C  0.44378583  0.15033316  0.12206702     0.23200
C1013       C  0.42434060  0.13211674  0.10614416    -0.12700
C1014       C  0.43579323  0.11238384  0.08499057     0.04600
C1015       C  0.43373952  0.16545443  0.14931765     0.27000
C1016       C  0.43514067  0.15033184  0.17655298    -0.13400
C1017       C  0.43585130  0.16653445  0.20307847     0.05100
C1018       C  0.43906332  0.19764050  0.20179429    -0.09400
C1019       C  0.43007633  0.21218272  0.17542871     0.05900
C1020       C  0.42742820  0.19585708  0.14901858    -0.13700
Br1021     Br  0.38226986  0.13424816  0.11362508    -0.05800
Br1022     Br  0.52723606  0.13178000  0.08340407    -0.00200
Br1023     Br  0.43222774  0.14606196  0.24047696     0.00300
Br1024     Br  0.41754376  0.21493029  0.11214686    -0.04100
Br1025     Br  0.40941380  0.08576510  0.06504926     0.00400
Br1026     Br  0.50023382  0.17888600  0.13393312    -0.03400
Br1027     Br  0.43932170  0.10783961  0.17733311    -0.04300
Br1028     Br  0.42220329  0.25413875  0.17493794    -0.00300
C1029       C  0.39228107  0.00846566  0.08135078     0.01100
C1030       C  0.39488421  0.99728873  0.11054273     0.03900
C1031       C  0.37083543  0.99939613  0.13047403    -0.12200
C1032       C  0.34340185  0.01076834  0.12095648     0.23200
C1033       C  0.34002041  0.02033981  0.09167305    -0.12700
C1034       C  0.36433472  0.01987971  0.07210695     0.04600
C1035       C  0.31770197  0.01129241  0.14151163     0.27000
C1036       C  0.29918712  0.98629184  0.14384585    -0.13400
C1037       C  0.27857860  0.98433492  0.16719672     0.05100
C1038       C  0.27637844  0.00740373  0.18804883    -0.09400
C1039       C  0.29234600  0.03384863  0.18352329     0.05900
C1040       C  0.31284796  0.03591754  0.16002994    -0.13700
Br1041     Br  0.30147188  0.03351471  0.07845108    -0.05800
Br1042     Br  0.42998238  0.97614604  0.12277664    -0.00200
Br1043     Br  0.25590014  0.94857889  0.17296139     0.00300
Br1044     Br  0.33553426  0.07165051  0.15414229    -0.04100
Br1045     Br  0.35803064  0.03588944  0.03314128     0.00400
Br1046     Br  0.37515178  0.98616750  0.17091775    -0.03400
Br1047     Br  0.30348232  0.95406735  0.11612172    -0.04300
Br1048     Br  0.28860556  0.06576373  0.21160647    -0.00300
C1049       C  0.60573800  0.01726976  0.89664012     0.01100
C1050       C  0.60744066  0.00116445  0.86971314     0.03900
C1051       C  0.63361479  0.00187284  0.85233031    -0.12200
C1052       C  0.65897906  0.01727208  0.86216379     0.23200
C1053       C  0.65756074  0.03327556  0.88881155    -0.12700
C1054       C  0.63094218  0.03422755  0.90539149     0.04600
C1055       C  0.68635515  0.01789745  0.84326232     0.27000
C1056       C  0.70612349  0.99372256  0.84313853    -0.13400
C1057       C  0.72700229  0.99054747  0.81993537     0.05100
C1058       C  0.72916986  0.01215569  0.79743270    -0.09400
C1059       C  0.71179529  0.03806434  0.79975516     0.05900
C1060       C  0.69051999  0.04095382  0.82260103    -0.13700
Br1061     Br  0.69240377  0.05405035  0.90236910    -0.05800
Br1062     Br  0.57483254  0.97676760  0.85669199    -0.00200
Br1063     Br  0.74915512  0.95426033  0.81608629     0.00300
Br1064     Br  0.66519180  0.07531472  0.82420250    -0.04100
Br1065     Br  0.62920195  0.06092848  0.93884455     0.00400
Br1066     Br  0.63478790  0.98201928  0.81443844    -0.03400
Br1067     Br  0.70312208  0.96403674  0.87369643    -0.04300
Br1068     Br  0.71425649  0.06770817  0.76909182    -0.00300
C1069       C  0.27397954  0.99101820  0.79055935     0.01100
C1070       C  0.29092289  0.96510994  0.79553727     0.03900
C1071       C  0.31535892  0.96551739  0.81499990    -0.12200
C1072       C  0.32257101  0.99148510  0.83079900     0.23200
C1073       C  0.30439245  0.01673743  0.82747453    -0.12700
C1074       C  0.28092544  0.01683034  0.80671291     0.04600
C1075       C  0.34947598  0.99218239  0.85043779     0.27000
C1076       C  0.34873227  0.97826551  0.87832674    -0.13400
C1077       C  0.37429901  0.97731535  0.89625956     0.05100
C1078       C  0.40070964  0.99247236  0.88777949    -0.09400
C1079       C  0.40147277  0.00618025  0.85943113     0.05900
C1080       C  0.37619186  0.00550529  0.84078304    -0.13700
Br1081     Br  0.31234335  0.05157927  0.85074438    -0.05800
Br1082     Br  0.28211076  0.92944166  0.77358836    -0.00200
Br1083     Br  0.37302180  0.95297441  0.93152627     0.00300
Br1084     Br  0.37797427  0.02285007  0.80170243    -0.04100
Br1085     Br  0.26118024  0.05344555  0.79727482     0.00400
Br1086     Br  0.34023945  0.93095654  0.81856151    -0.03400
Br1087     Br  0.31209969  0.96084718  0.89223481    -0.04300
Br1088     Br  0.43641737  0.02687114  0.84587371    -0.00300
C1089       C  0.51510242  0.07745359  0.39534358     0.01100
C1090       C  0.54247007  0.08368522  0.38137985     0.03900
C1091       C  0.54473053  0.10694714  0.36039583    -0.12200
C1092       C  0.51955157  0.12404270  0.35304661     0.23200
C1093       C  0.49240093  0.11808643  0.36746981    -0.12700
C1094       C  0.49029961  0.09515984  0.38857737     0.04600
C1095       C  0.52047184  0.14650961  0.32851959     0.27000
C1096       C  0.51963319  0.17721614  0.33464410    -0.13400
C1097       C  0.51461085  0.19789617  0.31155527     0.05100
C1098       C  0.51117229  0.18806761  0.28204799    -0.09400
C1099       C  0.51552814  0.15769329  0.27571291     0.05900
C1100       C  0.51888700  0.13696606  0.29882965    -0.13700
Br1101     Br  0.45761104  0.14089042  0.35761769    -0.05800
Br1102     Br  0.57701370  0.06103937  0.39194138    -0.00200
Br1103     Br  0.51040920  0.23933368  0.32072076     0.00300
Br1104     Br  0.51827337  0.09514167  0.29000667    -0.04100
Br1105     Br  0.45292723  0.08752561  0.40768623     0.00400
Br1106     Br  0.58225851  0.11554249  0.34171259    -0.03400
Br1107     Br  0.52318637  0.19062989  0.37504421    -0.04300
Br1108     Br  0.51743097  0.14436461  0.23508040    -0.00300
C1109       C  0.52287111  0.87549476  0.40092664     0.01100
C1110       C  0.53992865  0.84999777  0.40782794     0.03900
C1111       C  0.54157569  0.82593408  0.38778374    -0.12200
C1112       C  0.52664587  0.82703806  0.36044266     0.23200
C1113       C  0.51007550  0.85251007  0.35325305    -0.12700
C1114       C  0.50794881  0.87639408  0.37336334     0.04600
C1115       C  0.52745542  0.80132547  0.33937161     0.27000
C1116       C  0.55149570  0.79758379  0.31960293    -0.13400
C1117       C  0.54947565  0.77700369  0.29616699     0.05100
C1118       C  0.52315770  0.76074392  0.29164085    -0.09400
C1119       C  0.50071549  0.76186100  0.31339543     0.05900
C1120       C  0.50290843  0.78198325  0.33729358    -0.13700
Br1121     Br  0.48957871  0.85435622  0.31577679    -0.05800
Br1122     Br  0.56191099  0.84781271  0.44438241    -0.00200
Br1123     Br  0.58150863  0.77303488  0.26795548     0.00300
Br1124     Br  0.47133659  0.78472770  0.36607392    -0.04100
Br1125     Br  0.48243620  0.90915089  0.36354543     0.00400
Br1126     Br  0.56370699  0.79087132  0.39794548    -0.03400
Br1127     Br  0.58611761  0.82237540  0.32297637    -0.04300
Br1128     Br  0.46572924  0.73792768  0.30863458    -0.00300
C1129       C  0.47236244  0.20107651  0.69491056     0.01100
C1130       C  0.49030607  0.17609119  0.70050712     0.03900
C1131       C  0.49368546  0.15371259  0.67893070    -0.12200
C1132       C  0.47935293  0.15613513  0.65133964     0.23200
C1133       C  0.46315093  0.18206059  0.64487810    -0.12700
C1134       C  0.45927707  0.20418294  0.66675048     0.04600
C1135       C  0.48076036  0.13099884  0.62967656     0.27000
C1136       C  0.50434581  0.12913696  0.60927627    -0.13400
C1137       C  0.50679399  0.10455369  0.59013169     0.05100
C1138       C  0.48493870  0.08200142  0.59010405    -0.09400
C1139       C  0.46131762  0.08384567  0.61072551     0.05900
C1140       C  0.45949276  0.10802143  0.63062964    -0.13700
Br1141     Br  0.44529572  0.18657964  0.60642812    -0.05800
Br1142     Br  0.50839384  0.17139202  0.73881094    -0.00200
Br1143     Br  0.54180967  0.10074357  0.56597333     0.00300
Br1144     Br  0.42806724  0.10958985  0.65968526    -0.04100
Br1145     Br  0.43388047  0.23758923  0.65923844     0.00400
Br1146     Br  0.51666904  0.11878909  0.68764156    -0.03400
Br1147     Br  0.53367630  0.16026291  0.60805712    -0.04300
Br1148     Br  0.43090642  0.05379149  0.61130804    -0.00300
C1149       C  0.48891347  0.88014764  0.59583523     0.01100
C1150       C  0.49975945  0.88527507  0.62491493     0.03900
C1151       C  0.50060473  0.86203182  0.64591466    -0.12200
C1152       C  0.49146570  0.83322546  0.63812772     0.23200
C1153       C  0.48017304  0.82804629  0.60959580    -0.12700
C1154       C  0.47810372  0.85139062  0.58884479     0.04600
C1155       C  0.49505365  0.80816292  0.65955406     0.27000
C1156       C  0.52249815  0.79339192  0.66161480    -0.13400
C1157       C  0.52716130  0.77204536  0.68394303     0.05100
C1158       C  0.50408628  0.76434382  0.70367501    -0.09400
C1159       C  0.47612003  0.77790467  0.70052505     0.05900
C1160       C  0.47165077  0.79985771  0.67869175    -0.13700
Br1161     Br  0.46858863  0.78836060  0.59875485    -0.05800
Br1162     Br  0.51548617  0.92337557  0.63625411    -0.00200
Br1163     Br  0.56606529  0.75530260  0.68943796     0.00300
Br1164     Br  0.43406226  0.81992862  0.67618181    -0.04100
Br1165     Br  0.45894123  0.84354752  0.55143315     0.00400
Br1166     Br  0.51534905  0.86924352  0.68539950    -0.03400
Br1167     Br  0.55416174  0.80354262  0.63459809    -0.04300
Br1168     Br  0.44475977  0.76836325  0.72804939    -0.00300
C1169       C  0.30647843  0.96970893  0.28321728     0.01100
C1170       C  0.32695291  0.94774751  0.27436030     0.03900
C1171       C  0.35151032  0.94155595  0.29228715    -0.12200
C1172       C  0.35529111  0.95719621  0.31886668     0.23200
C1173       C  0.33406009  0.97779935  0.32855302    -0.12700
C1174       C  0.31012884  0.98478155  0.31039054     0.04600
C1175       C  0.38247374  0.95419364  0.33612400     0.27000
C1176       C  0.38331937  0.93372577  0.35944473    -0.13400
C1177       C  0.40481912  0.93679659  0.38142252     0.05100
C1178       C  0.42473552  0.96092362  0.38042531    -0.09400
C1179       C  0.42580193  0.97951141  0.35537409     0.05900
C1180       C  0.40465164  0.97593466  0.33302693    -0.13700
Br1181     Br  0.33831193  0.99707283  0.36659228    -0.05800
Br1182     Br  0.32168803  0.92626748  0.23778026    -0.00200
Br1183     Br  0.40670666  0.90786344  0.41273148     0.00300
Br1184     Br  0.40395122  0.00264038  0.29962010    -0.04100
Br1185     Br  0.28479114  0.01748271  0.32174590     0.00400
Br1186     Br  0.38015414  0.91202904  0.28068668    -0.03400
Br1187     Br  0.35328848  0.90337450  0.36260354    -0.04300
Br1188     Br  0.45403691  0.01160295  0.35280478    -0.00300
C1189       C  0.57660134  0.97359968  0.61028528     0.01100
C1190       C  0.59409466  0.94783110  0.61077551     0.03900
C1191       C  0.61624265  0.94488031  0.63188726    -0.12200
C1192       C  0.61954300  0.96693620  0.65341701     0.23200
C1193       C  0.59977739  0.99096547  0.65519800    -0.12700
C1194       C  0.57822525  0.99449803  0.63326354     0.04600
C1195       C  0.64677459  0.96765472  0.67043834     0.27000
C1196       C  0.64835809  0.95336027  0.69794383    -0.13400
C1197       C  0.67442167  0.95543943  0.71446851     0.05100
C1198       C  0.69830686  0.97252819  0.70355888    -0.09400
C1199       C  0.69724049  0.98505672  0.67484277     0.05900
C1200       C  0.67135497  0.98246787  0.65829652    -0.13700
Br1201     Br  0.60431457  0.02025179  0.68595613    -0.05800
Br1202     Br  0.58799566  0.91656333  0.58253092    -0.00200
Br1203     Br  0.67760666  0.93414942  0.75142551     0.00300
Br1204     Br  0.66899990  0.00009604  0.61922631    -0.04100
Br1205     Br  0.55285857  0.02886725  0.63330772     0.00400
Br1206     Br  0.64419490  0.91256222  0.62932519    -0.03400
Br1207     Br  0.61455364  0.93168448  0.71287611    -0.04300
Br1208     Br  0.72981155  0.00770611  0.65824546    -0.00300
C1209       C  0.38542745  0.97134054  0.57214823     0.01100
C1210       C  0.38443307  0.95160597  0.59634816     0.03900
C1211       C  0.36174188  0.95420734  0.61733084    -0.12200
C1212       C  0.33888965  0.97473390  0.61264400     0.23200
C1213       C  0.33802695  0.99206354  0.58682838    -0.12700
C1214       C  0.36189069  0.99118561  0.56698768     0.04600
C1215       C  0.31770250  0.98045604  0.63644200     0.27000
C1216       C  0.29246365  0.96248234  0.63956937    -0.13400
C1217       C  0.27313012  0.96725009  0.66338989     0.05100
C1218       C  0.27976926  0.98945963  0.68422780    -0.09400
C1219       C  0.30478429  0.00774583  0.68079764     0.05900
C1220       C  0.32382875  0.00321102  0.65680327    -0.13700
Br1221     Br  0.30495956  0.01818728  0.57980508    -0.05800
Br1222     Br  0.41372123  0.92079463  0.60066699    -0.00200
Br1223     Br  0.23867052  0.94228310  0.66832086     0.00300
Br1224     Br  0.35902078  0.02725199  0.65253537    -0.04100
Br1225     Br  0.36349138  0.01942703  0.53484900     0.00400
Br1226     Br  0.36298310  0.93135232  0.65351433    -0.03400
Br1227     Br  0.28549880  0.93046448  0.61215815    -0.04300
Br1228     Br  0.31279932  0.03923511  0.70870680    -0.00300
C1229       C  0.59838195  0.01807428  0.08859182     0.01100
C1230       C  0.59587540  0.03085971  0.11725862     0.03900
C1231       C  0.62021930  0.03028071  0.13709564    -0.12200
C1232       C  0.64782552  0.01853047  0.12816772     0.23200
C1233       C  0.65090068  0.00701584  0.09948520    -0.12700
C1234       C  0.62634001  0.00555959  0.08033080     0.04600
C1235       C  0.67304384  0.01563577  0.14951296     0.27000
C1236       C  0.69443462  0.03828775  0.15259214    -0.13400
C1237       C  0.71765656  0.03540995  0.17341569     0.05100
C1238       C  0.71988144  0.00971444  0.19103518    -0.09400
C1239       C  0.69980710  0.98614554  0.18612571     0.05900
C1240       C  0.67642701  0.98918294  0.16571432    -0.13700
Br1241     Br  0.68934544  0.99284346  0.08667569    -0.05800
Br1242     Br  0.55990530  0.05051258  0.12950331    -0.00200
Br1243     Br  0.74505268  0.06756031  0.17951029     0.00300
Br1244     Br  0.64819914  0.95743566  0.16059509    -0.04100
Br1245     Br  0.63202990  0.98391425  0.04384004     0.00400
Br1246     Br  0.61596181  0.04541010  0.17684359    -0.03400
Br1247     Br  0.69128640  0.07358382  0.12885073    -0.04300
Br1248     Br  0.70376294  0.94983942  0.20837143    -0.00300
C1249       C  0.71239712  0.00691290  0.29787431     0.01100
C1250       C  0.71982713  0.98456999  0.31844389     0.03900
C1251       C  0.70234144  0.98056702  0.34368714    -0.12200
C1252       C  0.67682535  0.99785182  0.34750510     0.23200
C1253       C  0.66938268  0.02023342  0.32714506    -0.12700
C1254       C  0.68749710  0.02507356  0.30243049     0.04600
C1255       C  0.65697103  0.99137049  0.37218564     0.27000
C1256       C  0.63814987  0.96660811  0.37046663    -0.13400
C1257       C  0.61755724  0.96155590  0.39301727     0.05100
C1258       C  0.61547659  0.98169589  0.41676519    -0.09400
C1259       C  0.63555746  0.00547720  0.41931275     0.05900
C1260       C  0.65659038  0.01013025  0.39699136    -0.13700
Br1261     Br  0.63426470  0.04395377  0.33288669    -0.05800
Br1262     Br  0.75247775  0.95781646  0.31147635    -0.00200
Br1263     Br  0.59195633  0.92724295  0.39103862     0.00300
Br1264     Br  0.68411264  0.04282936  0.39958564    -0.04100
Br1265     Br  0.67865560  0.05708484  0.27544882     0.00400
Br1266     Br  0.71276467  0.95099755  0.37287454    -0.03400
Br1267     Br  0.63986302  0.94020384  0.33676457    -0.04300
Br1268     Br  0.63281385  0.03340105  0.45155873    -0.00300
C1269       C  0.30620633  0.75474832  0.48168413     0.01100
C1270       C  0.32566887  0.75641465  0.50598425     0.03900
C1271       C  0.35009323  0.77599600  0.50509832    -0.12200
C1272       C  0.35490324  0.79401988  0.47995810     0.23200
C1273       C  0.33765017  0.78957173  0.45439716    -0.12700
C1274       C  0.31373327  0.76956541  0.45514097     0.04600
C1275       C  0.37477195  0.82033482  0.48176717     0.27000
C1276       C  0.36445232  0.84636018  0.49567112    -0.13400
C1277       C  0.38259351  0.87174484  0.49712293     0.05100
C1278       C  0.41089817  0.87170959  0.48356860    -0.09400
C1279       C  0.42077110  0.84573207  0.46879143     0.05900
C1280       C  0.40303880  0.82005302  0.46851926    -0.13700
Br1281     Br  0.34435943  0.81367622  0.41965068    -0.05800
Br1282     Br  0.31673387  0.73467144  0.54163460    -0.00200
Br1283     Br  0.36892732  0.90566034  0.51930337     0.00300
Br1284     Br  0.41741520  0.78432428  0.44995364    -0.04100
Br1285     Br  0.28871182  0.76506527  0.42084900     0.00400
Br1286     Br  0.37507632  0.78071303  0.53936523    -0.03400
Br1287     Br  0.32504400  0.84718928  0.51257389    -0.04300
Br1288     Br  0.45793229  0.84518267  0.44724900    -0.00300
C1289       C  0.70503941  0.75978951  0.51288359     0.01100
C1290       C  0.70035822  0.77743051  0.53832011     0.03900
C1291       C  0.67902277  0.80018766  0.53822523    -0.12200
C1292       C  0.66123022  0.80483377  0.51305179     0.23200
C1293       C  0.66338802  0.78492788  0.48898484    -0.12700
C1294       C  0.68523635  0.76242928  0.48891002     0.04600
C1295       C  0.64055714  0.83076753  0.51202134     0.27000
C1296       C  0.61239778  0.82881583  0.52528887    -0.13400
C1297       C  0.59329996  0.85352151  0.52565354     0.05100
C1298       C  0.60168238  0.88058034  0.51163186    -0.09400
C1299       C  0.63022118  0.88245456  0.49849143     0.05900
C1300       C  0.64948119  0.85769777  0.49881089    -0.13700
Br1301     Br  0.63744740  0.78972651  0.45549635    -0.05800
Br1302     Br  0.72465811  0.77120621  0.57288344    -0.00200
Br1303     Br  0.55606779  0.84969210  0.54679040     0.00300
Br1304     Br  0.68809225  0.86020038  0.48042413    -0.04100
Br1305     Br  0.68924697  0.73645481  0.45532414     0.00400
Br1306     Br  0.67562635  0.82641596  0.57180873    -0.03400
Br1307     Br  0.59982387  0.79165549  0.54246994    -0.04300
Br1308     Br  0.64282291  0.91812139  0.47849367    -0.00300
C1309       C  0.70220471  0.20173338  0.48752308     0.01100
C1310       C  0.69637067  0.19300345  0.51711539     0.03900
C1311       C  0.67370316  0.17207338  0.52334607    -0.12200
C1312       C  0.65883070  0.15740113  0.50000323     0.23200
C1313       C  0.66451552  0.16642133  0.47057792    -0.12700
C1314       C  0.68432906  0.18980573  0.46468951     0.04600
C1315       C  0.63641784  0.13331769  0.50580744     0.27000
C1316       C  0.64519592  0.10483787  0.51503749    -0.13400
C1317       C  0.62418390  0.08158632  0.51773761     0.05100
C1318       C  0.59434485  0.08544717  0.50796524    -0.09400
C1319       C  0.58568643  0.11481325  0.49941954     0.05900
C1320       C  0.60630973  0.13844373  0.49979394    -0.13700
Br1321     Br  0.64625614  0.14573071  0.43787316    -0.05800
Br1322     Br  0.72055360  0.20765008  0.54905227    -0.00200
Br1323     Br  0.63713889  0.04548262  0.53676442     0.00300
Br1324     Br  0.59360976  0.17854478  0.49147090    -0.04100
Br1325     Br  0.68624267  0.20602008  0.42501875     0.00400
Br1326     Br  0.66296558  0.16348042  0.56384020    -0.03400
Br1327     Br  0.68657791  0.09735761  0.52292637    -0.04300
Br1328     Br  0.54615913  0.12462524  0.48587760    -0.00300
C1329       C  0.39900462  0.07294556  0.47326199     0.01100
C1330       C  0.38228506  0.07477948  0.44687382     0.03900
C1331       C  0.36151498  0.09794053  0.44295931    -0.12200
C1332       C  0.35546336  0.11798222  0.46629655     0.23200
C1333       C  0.37120457  0.11513113  0.49314020    -0.12700
C1334       C  0.39340438  0.09341771  0.49625827     0.04600
C1335       C  0.33115652  0.14061683  0.46401273     0.27000
C1336       C  0.33778563  0.17121792  0.46262082    -0.13400
C1337       C  0.31535043  0.19258714  0.46783624     0.05100
C1338       C  0.28578732  0.18354891  0.47286990    -0.09400
C1339       C  0.27872006  0.15312955  0.46989586     0.05900
C1340       C  0.30129856  0.13175869  0.46679591    -0.13700
Br1341     Br  0.36134383  0.14016014  0.52643138    -0.05800
Br1342     Br  0.38756428  0.04552914  0.41612470    -0.00200
Br1343     Br  0.32565049  0.23385950  0.47068230     0.00300
Br1344     Br  0.29145616  0.09020375  0.46930426    -0.04100
Br1345     Br  0.41497666  0.09069579  0.53306437     0.00400
Br1346     Br  0.34153317  0.10245187  0.40552796    -0.03400
Br1347     Br  0.37805139  0.18361718  0.45529524    -0.04300
Br1348     Br  0.23779792  0.14054348  0.47043052    -0.00300
C1349       C  0.89855838  0.99684828  0.58583101     0.01100
C1350       C  0.87240649  0.01398531  0.58725555     0.03900
C1351       C  0.85297956  0.01150319  0.61194520    -0.12200
C1352       C  0.86125295  0.99490674  0.63724372     0.23200
C1353       C  0.88772052  0.97833919  0.63605493    -0.12700
C1354       C  0.90482392  0.97758860  0.60981962     0.04600
C1355       C  0.84180500  0.99381726  0.66450081     0.27000
C1356       C  0.83667262  0.01939569  0.68196964    -0.13400
C1357       C  0.81550113  0.01880590  0.70529089     0.05100
C1358       C  0.80236109  0.99177981  0.71405573    -0.09400
C1359       C  0.81082745  0.96560807  0.69909146     0.05900
C1360       C  0.82811055  0.96699742  0.67305772    -0.13700
Br1361     Br  0.90139711  0.95734475  0.67076936    -0.05800
Br1362     Br  0.86407324  0.04251232  0.55666081    -0.00200
Br1363     Br  0.80170530  0.05545007  0.72225715     0.00300
Br1364     Br  0.82983299  0.93283761  0.64737444    -0.04100
Br1365     Br  0.93530209  0.94804279  0.60616634     0.00400
Br1366     Br  0.81452082  0.03002195  0.61059940    -0.03400
Br1367     Br  0.85782205  0.05552400  0.67333324    -0.04300
Br1368     Br  0.79652808  0.92775438  0.71317387    -0.00300
C1369       C  0.09055272  0.01671217  0.59745589     0.01100
C1370       C  0.11890014  0.00308579  0.59735511     0.03900
C1371       C  0.13726312  0.00459672  0.62263461    -0.12200
C1372       C  0.12650467  0.01665222  0.64941533     0.23200
C1373       C  0.09811591  0.02935145  0.65013729    -0.12700
C1374       C  0.08054160  0.03026420  0.62433614     0.04600
C1375       C  0.14463723  0.01514288  0.67710995     0.27000
C1376       C  0.14683349  0.98837269  0.69312014    -0.13400
C1377       C  0.16624854  0.98619708  0.71750247     0.05100
C1378       C  0.18425527  0.01037894  0.72555173    -0.09400
C1379       C  0.17890506  0.03807664  0.71213216     0.05900
C1380       C  0.15987177  0.04035086  0.68747532    -0.13700
Br1381     Br  0.08318934  0.04509924  0.68714984    -0.05800
Br1382     Br  0.13161481  0.97870922  0.56450231    -0.00200
Br1383     Br  0.17140729  0.94898349  0.73766270     0.00300
Br1384     Br  0.15714649  0.07715009  0.66592710    -0.04100
Br1385     Br  0.04266317  0.05017324  0.62743587     0.00400
Br1386     Br  0.17758269  0.99047698  0.62062425    -0.03400
Br1387     Br  0.12529518  0.95396992  0.67995380    -0.04300
Br1388     Br  0.20114099  0.07199156  0.72527902    -0.00300
C1389       C  0.20586701  0.00296039  0.27334371     0.01100
C1390       C  0.18778550  0.97972211  0.28386502     0.03900
C1391       C  0.16666537  0.98509120  0.30619508    -0.12200
C1392       C  0.16468768  0.01333354  0.31924719     0.23200
C1393       C  0.18196508  0.03684254  0.30813519    -0.12700
C1394       C  0.20233497  0.03172803  0.28498783     0.04600
C1395       C  0.14483174  0.01783068  0.34509792     0.27000
C1396       C  0.11525584  0.02584077  0.34052089    -0.13400
C1397       C  0.09535912  0.02652639  0.36449167     0.05100
C1398       C  0.10461456  0.01793933  0.39338703    -0.09400
C1399       C  0.13539835  0.01352720  0.39835014     0.05900
C1400       C  0.15527086  0.01318004  0.37409525    -0.13700
Br1401     Br  0.17879740  0.07555210  0.32588840    -0.05800
Br1402     Br  0.19387135  0.93994035  0.26950875    -0.00200
Br1403     Br  0.05627744  0.04203405  0.35704295     0.00300
Br1404     Br  0.19702294  0.00623638  0.38023532    -0.04100
Br1405     Br  0.22773214  0.06341646  0.27160431     0.00400
Br1406     Br  0.14116321  0.95352524  0.31984970    -0.03400
Br1407     Br  0.10213250  0.03577747  0.30100815    -0.04300
Br1408     Br  0.15151175  0.00878098  0.43770088    -0.00300
C1409       C  0.80995175  0.01297036  0.25759409     0.01100
C1410       C  0.82102554  0.98448617  0.26398516     0.03900
C1411       C  0.84281395  0.98055778  0.28604960    -0.12200
C1412       C  0.85490592  0.00532197  0.30083929     0.23200
C1413       C  0.84665044  0.03399317  0.29159271    -0.12700
C1414       C  0.82367882  0.03777579  0.27076304     0.04600
C1415       C  0.87404849  0.00143178  0.32773762     0.27000
C1416       C  0.86222118  0.00647221  0.35627144    -0.13400
C1417       C  0.88046009  0.00512960  0.38171453     0.05100
C1418       C  0.91090451  0.99694523  0.37924663    -0.09400
C1419       C  0.92184400  0.98946127  0.35031755     0.05900
C1420       C  0.90392210  0.99316900  0.32491421    -0.13700
Br1421     Br  0.86527889  0.06804448  0.30939159    -0.05800
Br1422     Br  0.80258477  0.95049150  0.24581221    -0.00200
Br1423     Br  0.86270352  0.01616421  0.41921720     0.00300
Br1424     Br  0.92051800  0.98810222  0.28565685    -0.04100
Br1425     Br  0.80782303  0.07672643  0.26357876     0.00400
Br1426     Br  0.85370737  0.94111022  0.29814554    -0.03400
Br1427     Br  0.82055360  0.01578018  0.36026969    -0.04300
Br1428     Br  0.96076881  0.97241885  0.34396814    -0.00300
C1429       C  0.10580902  0.91483048  0.49363469     0.01100
C1430       C  0.12732469  0.91391579  0.47097089     0.03900
C1431       C  0.15030069  0.89306548  0.47224396    -0.12200
C1432       C  0.14924372  0.87033648  0.49360986     0.23200
C1433       C  0.12654290  0.87002272  0.51515311    -0.12700
C1434       C  0.10575186  0.89306894  0.51605930     0.04600
C1435       C  0.17036605  0.84542037  0.49196773     0.27000
C1436       C  0.16709458  0.82387256  0.46958014    -0.13400
C1437       C  0.18618299  0.79939450  0.46871845     0.05100
C1438       C  0.20786946  0.79596429  0.49075685    -0.09400
C1439       C  0.21123250  0.81745050  0.51309299     0.05900
C1440       C  0.19268995  0.84237194  0.51352070    -0.13700
Br1441     Br  0.12294311  0.83723443  0.54243372    -0.05800
Br1442     Br  0.12258450  0.93756587  0.43581218    -0.00200
Br1443     Br  0.18316931  0.77094281  0.43694206     0.00300
Br1444     Br  0.19739686  0.87196707  0.54400492    -0.04100
Br1445     Br  0.07709905  0.89452970  0.54795641     0.00400
Br1446     Br  0.18285695  0.89528394  0.44444265    -0.03400
Br1447     Br  0.13572522  0.82724740  0.44075087    -0.04300
Br1448     Br  0.24020419  0.81191311  0.54400302    -0.00300
C1449       C  0.80993861  0.78123917  0.50496993     0.01100
C1450       C  0.80898395  0.80456040  0.48425445     0.03900
C1451       C  0.83076348  0.82666034  0.48479182    -0.12200
C1452       C  0.85323064  0.82580950  0.50632818     0.23200
C1453       C  0.85483133  0.80201906  0.52645497    -0.12700
C1454       C  0.83340030  0.77941887  0.52545887     0.04600
C1455       C  0.87504374  0.85015944  0.50704955     0.27000
C1456       C  0.90194384  0.84718362  0.49162387    -0.13400
C1457       C  0.92024638  0.87195916  0.48725045     0.05100
C1458       C  0.91149412  0.90015532  0.49819302    -0.09400
C1459       C  0.88468648  0.90272359  0.51444256     0.05900
C1460       C  0.86680499  0.87764448  0.51914253    -0.13700
Br1461     Br  0.88606190  0.80069649  0.55548897    -0.05800
Br1462     Br  0.77875213  0.80556564  0.45407010    -0.00200
Br1463     Br  0.95624810  0.86664379  0.46438127     0.00300
Br1464     Br  0.83031327  0.88077833  0.54148484    -0.04100
Br1465     Br  0.83584475  0.74642789  0.55257990     0.00400
Br1466     Br  0.83012801  0.85814274  0.45576504    -0.03400
Br1467     Br  0.91284338  0.80921054  0.47512605    -0.04300
Br1468     Br  0.87199272  0.94007057  0.53093294    -0.00300
C1469       C  0.79133886  0.19884049  0.42675104     0.01100
C1470       C  0.78596618  0.16813459  0.42311627     0.03900
C1471       C  0.81000835  0.14856202  0.42338000    -0.12200
C1472       C  0.83890313  0.15996088  0.42523959     0.23200
C1473       C  0.84408332  0.19025045  0.42039998    -0.12700
C1474       C  0.81993408  0.20975986  0.41998850     0.04600
C1475       C  0.86258003  0.14085925  0.43662011     0.27000
C1476       C  0.86855734  0.14075779  0.46729955    -0.13400
C1477       C  0.88866683  0.12026759  0.47903231     0.05100
C1478       C  0.90155777  0.09906739  0.46024433    -0.09400
C1479       C  0.89693582  0.10040289  0.42939537     0.05900
C1480       C  0.87735382  0.12126702  0.41756333    -0.13700
Br1481     Br  0.88407001  0.20500835  0.41754929    -0.05800
Br1482     Br  0.74651481  0.15210666  0.41896183    -0.00200
Br1483     Br  0.89936348  0.12180179  0.52039563     0.00300
Br1484     Br  0.87043825  0.12305992  0.37544148    -0.04100
Br1485     Br  0.82609328  0.25118633  0.41154400     0.00400
Br1486     Br  0.80340950  0.10630775  0.42465758    -0.03400
Br1487     Br  0.84854150  0.16807743  0.49332069    -0.04300
Br1488     Br  0.91907749  0.07516996  0.40310148    -0.00300
C1489       C  0.08932032  0.11190620  0.51133028     0.01100
C1490       C  0.09161214  0.11343401  0.54242224     0.03900
C1491       C  0.11285311  0.13160136  0.55574736    -0.12200
C1492       C  0.13219359  0.14805908  0.53782528     0.23200
C1493       C  0.12880676  0.14810226  0.50668518    -0.12700
C1494       C  0.10703845  0.13021568  0.49341151     0.04600
C1495       C  0.15854814  0.16211938  0.55081703     0.27000
C1496       C  0.15807070  0.19209291  0.55908819    -0.13400
C1497       C  0.18489956  0.20788206  0.55983474     0.05100
C1498       C  0.21132293  0.19360769  0.55069835    -0.09400
C1499       C  0.21221561  0.16242563  0.55224765     0.05900
C1500       C  0.18555629  0.14659369  0.55051875    -0.13700
Br1501     Br  0.15545062  0.17107396  0.48226912    -0.05800
Br1502     Br  0.06634508  0.08955771  0.56683174    -0.00200
Br1503     Br  0.18510910  0.24916670  0.57075716     0.00300
Br1504     Br  0.18598113  0.10442786  0.54384237    -0.04100
Br1505     Br  0.10210894  0.12995004  0.45103412     0.00400
Br1506     Br  0.11679790  0.13249636  0.59833010    -0.03400
Br1507     Br  0.12085042  0.21169372  0.56647377    -0.04300
Br1508     Br  0.24940756  0.14155696  0.55460541    -0.00300
C1509       C  0.99907991  0.72431553  0.19128724     0.01100
C1510       C  0.97221458  0.70934364  0.18570526     0.03900
C1511       C  0.97072959  0.68746135  0.16342196    -0.12200
C1512       C  0.99604485  0.68072848  0.14617130     0.23200
C1513       C  0.02178574  0.69817146  0.14937179    -0.12700
C1514       C  0.02334940  0.71967142  0.17201757     0.04600
C1515       C  0.99618674  0.65418428  0.12627077     0.27000
C1516       C  0.01097572  0.62793828  0.13475132    -0.13400
C1517       C  0.01133784  0.60293912  0.11579155     0.05100
C1518       C  0.99493732  0.60312791  0.08910863    -0.09400
C1519       C  0.97871548  0.62910369  0.08181638     0.05900
C1520       C  0.98099008  0.65487173  0.09919601    -0.13700
Br1521     Br  0.05570255  0.69082923  0.12423880    -0.05800
Br1522     Br  0.93884589  0.71555503  0.21188296    -0.00200
Br1523     Br  0.03608280  0.56961983  0.12574669     0.00300
Br1524     Br  0.96455453  0.69175601  0.08514203    -0.04100
Br1525     Br  0.06006769  0.74015299  0.17939196     0.00400
Br1526     Br  0.93488569  0.66463854  0.15864136    -0.03400
Br1527     Br  0.03139538  0.62658869  0.17223550    -0.04300
Br1528     Br  0.95137096  0.62958225  0.04914293    -0.00300
C1529       C  0.99938015  0.90106666  0.39487291     0.01100
C1530       C  0.02209847  0.88065632  0.38811225     0.03900
C1531       C  0.01778839  0.85879535  0.36600397    -0.12200
C1532       C  0.99119163  0.85775496  0.34954172     0.23200
C1533       C  0.96803510  0.87735551  0.35723047    -0.12700
C1534       C  0.97171397  0.89789460  0.38062870     0.04600
C1535       C  0.98764915  0.83517954  0.32517368     0.27000
C1536       C  0.00072016  0.83983642  0.29701109    -0.13400
C1537       C  0.00299005  0.81632667  0.27625972     0.05100
C1538       C  0.99128127  0.78808112  0.28312881    -0.09400
C1539       C  0.97484299  0.78474087  0.30978859     0.05900
C1540       C  0.97363864  0.80783528  0.33090549    -0.13700
Br1541     Br  0.93125751  0.87617212  0.33570292    -0.05800
Br1542     Br  0.05894224  0.88228856  0.40947764    -0.00200
Br1543     Br  0.02415552  0.82242873  0.23958105     0.00300
Br1544     Br  0.95417713  0.80141459  0.36852359    -0.04100
Br1545     Br  0.93784389  0.91921842  0.39567863     0.00400
Br1546     Br  0.04803282  0.82951568  0.35866016    -0.03400
Br1547     Br  0.01638110  0.87839723  0.28746329    -0.04300
Br1548     Br  0.95366299  0.74830677  0.31749719    -0.00300
C1549       C  0.00673439  0.28021304  0.79056858     0.01100
C1550       C  0.02460451  0.28284253  0.81604699     0.03900
C1551       C  0.02201205  0.30775047  0.83486093    -0.12200
C1552       C  0.00151689  0.33042649  0.82835961     0.23200
C1553       C  0.98265901  0.32714401  0.80373278    -0.12700
C1554       C  0.98526409  0.30222993  0.78497665     0.04600
C1555       C  0.00017338  0.35794760  0.84697390     0.27000
C1556       C  0.97935012  0.36023875  0.87014575    -0.13400
C1557       C  0.97832060  0.38587507  0.88801030     0.05100
C1558       C  0.99904769  0.40923799  0.88387608    -0.09400
C1559       C  0.01913996  0.40732978  0.85983156     0.05900
C1560       C  0.01930302  0.38207403  0.84121364    -0.13700
Br1561     Br  0.95479509  0.35810586  0.79444391    -0.05800
Br1562     Br  0.05445745  0.25327903  0.82358591    -0.00200
Br1563     Br  0.94712974  0.38922290  0.91713385     0.00300
Br1564     Br  0.04568538  0.38041266  0.80754683    -0.04100
Br1565     Br  0.96160928  0.30000770  0.74964178     0.00400
Br1566     Br  0.04787122  0.31181596  0.86851470    -0.03400
Br1567     Br  0.95224804  0.32790039  0.87743023    -0.04300
Br1568     Br  0.04765603  0.43836474  0.85315046    -0.00300
C1569       C  0.00234261  0.19781179  0.71506648     0.01100
C1570       C  0.02022410  0.17258854  0.71038304     0.03900
C1571       C  0.01418258  0.15295738  0.68681175    -0.12200
C1572       C  0.99010546  0.15832660  0.66772485     0.23200
C1573       C  0.97037808  0.18159998  0.67435283    -0.12700
C1574       C  0.97653578  0.20133942  0.69783407     0.04600
C1575       C  0.98720016  0.14141284  0.63931848     0.27000
C1576       C  0.00114148  0.15188993  0.61326000    -0.13400
C1577       C  0.99954165  0.13558044  0.58649950     0.05100
C1578       C  0.98500850  0.10773921  0.58594819    -0.09400
C1579       C  0.96911859  0.09861688  0.61170641     0.05900
C1580       C  0.97042752  0.11522200  0.63813482    -0.13700
Br1581     Br  0.93610348  0.18761482  0.64969941    -0.05800
Br1582     Br  0.05443628  0.16635285  0.73508101    -0.00200
Br1583     Br  0.01755557  0.15185187  0.55121575     0.00300
Br1584     Br  0.94962360  0.10181321  0.67311842    -0.04100
Br1585     Br  0.95129440  0.23502776  0.70416293     0.00400
Br1586     Br  0.04010494  0.11991433  0.67924507    -0.03400
Br1587     Br  0.02341832  0.18834844  0.61478416    -0.04300
Br1588     Br  0.94414277  0.06379822  0.61102207    -0.00300
C1589       C  0.01605508  0.73537128  0.79434778     0.01100
C1590       C  0.98998595  0.73341116  0.81152039     0.03900
C1591       C  0.98775616  0.71238246  0.83459991    -0.12200
C1592       C  0.01111828  0.69223594  0.83961004     0.23200
C1593       C  0.03807364  0.69588244  0.82408818    -0.12700
C1594       C  0.04073870  0.71793186  0.80214267     0.04600
C1595       C  0.00725806  0.66654661  0.86019615     0.27000
C1596       C  0.01987008  0.66735002  0.88858330    -0.13400
C1597       C  0.01893747  0.64215061  0.90704870     0.05100
C1598       C  0.00422895  0.61576215  0.89766641    -0.09400
C1599       C  0.99015772  0.61579221  0.86964107     0.05900
C1600       C  0.99253059  0.64066626  0.85072500    -0.13700
Br1601     Br  0.07052593  0.66899665  0.83115067    -0.05800
Br1602     Br  0.95621613  0.75715778  0.80085000    -0.00200
Br1603     Br  0.03941477  0.64471996  0.94455942     0.00300
Br1604     Br  0.97644245  0.63902703  0.81119017    -0.04100
Br1605     Br  0.07734988  0.72237043  0.78036081     0.00400
Br1606     Br  0.95220895  0.71006063  0.85829502    -0.03400
Br1607     Br  0.03915010  0.70325679  0.90174489    -0.04300
Br1608     Br  0.96557459  0.58291548  0.85761442    -0.00300
C1609       C  0.00679308  0.91449989  0.59345283     0.01100
C1610       C  0.02646402  0.92003999  0.61717268     0.03900
C1611       C  0.02886150  0.89978801  0.64071822    -0.12200
C1612       C  0.01179840  0.87373681  0.64083722     0.23200
C1613       C  0.99160928  0.86838930  0.61761742    -0.12700
C1614       C  0.98913445  0.88864742  0.59397488     0.04600
C1615       C  0.01552966  0.85178870  0.66517125     0.27000
C1616       C  0.03996871  0.83238075  0.66490163    -0.13400
C1617       C  0.04220922  0.80999965  0.68648237     0.05100
C1618       C  0.02019270  0.80691849  0.70866162    -0.09400
C1619       C  0.99696499  0.82774480  0.71015988     0.05900
C1620       C  0.99460326  0.85008961  0.68841783    -0.13700
Br1621     Br  0.96705522  0.83338675  0.61838158    -0.05800
Br1622     Br  0.05147006  0.95454634  0.61728678    -0.00200
Br1623     Br  0.07437024  0.78186894  0.68432176     0.00300
Br1624     Br  0.96181658  0.87748721  0.68934854    -0.04100
Br1625     Br  0.96032341  0.88152750  0.56321664     0.00400
Br1626     Br  0.05553678  0.90762844  0.67315345    -0.03400
Br1627     Br  0.06952532  0.83538879  0.63391630    -0.04300
Br1628     Br  0.96676968  0.82392542  0.74021367    -0.00300
C1629       C  0.21764481  0.68941796  0.50159299     0.01100
C1630       C  0.21756559  0.66740158  0.47942008     0.03900
C1631       C  0.19654437  0.64417274  0.48049704    -0.12200
C1632       C  0.17458872  0.64358076  0.50291540     0.23200
C1633       C  0.17557785  0.66476795  0.52581627    -0.12700
C1634       C  0.19755817  0.68696100  0.52563101     0.04600
C1635       C  0.14998522  0.62132354  0.50197561     0.27000
C1636       C  0.12579203  0.62536371  0.48267383    -0.13400
C1637       C  0.10318681  0.60377929  0.48079401     0.05100
C1638       C  0.10288522  0.57930375  0.50035611    -0.09400
C1639       C  0.12658237  0.57615600  0.52072941     0.05900
C1640       C  0.15043282  0.59641884  0.52072260    -0.13700
Br1641     Br  0.14553636  0.66457848  0.55642025    -0.05800
Br1642     Br  0.24426200  0.67052389  0.44609595    -0.00200
Br1643     Br  0.07420262  0.60678058  0.44963831     0.00300
Br1644     Br  0.18389136  0.59027796  0.54657854    -0.04100
Br1645     Br  0.19983980  0.71457597  0.55822743     0.00400
Br1646     Br  0.19699862  0.61363328  0.45066099    -0.03400
Br1647     Br  0.12310085  0.66118905  0.45956949    -0.04300
Br1648     Br  0.12604574  0.54533614  0.55023333    -0.00300
C1649       C  0.78421115  0.27698854  0.50015053     0.01100
C1650       C  0.78003641  0.30640706  0.49065171     0.03900
C1651       C  0.80191598  0.32809135  0.49626544    -0.12200
C1652       C  0.82808198  0.32043820  0.51149266     0.23200
C1653       C  0.83064623  0.29195815  0.52389747    -0.12700
C1654       C  0.80911538  0.27016968  0.51774875     0.04600
C1655       C  0.85413673  0.34094967  0.51145684     0.27000
C1656       C  0.87632908  0.33795416  0.48949537    -0.13400
C1657       C  0.90092255  0.35729765  0.48891800     0.05100
C1658       C  0.90266130  0.38101087  0.50924532    -0.09400
C1659       C  0.88043249  0.38386803  0.53133159     0.05900
C1660       C  0.85687904  0.36330926  0.53299264    -0.13700
Br1661     Br  0.86448708  0.28264389  0.54814975    -0.05800
Br1662     Br  0.74564138  0.31613516  0.46748300    -0.00200
Br1663     Br  0.93149312  0.35188218  0.45931897     0.00300
Br1664     Br  0.82860516  0.36518240  0.56510721    -0.04100
Br1665     Br  0.81507315  0.23018832  0.53119627     0.00400
Br1666     Br  0.79701651  0.36786038  0.48159509    -0.03400
Br1667     Br  0.87253545  0.30764408  0.45961427    -0.04300
Br1668     Br  0.88226656  0.41559399  0.55985395    -0.00300
C1669       C  0.21891489  0.27331146  0.48046539     0.01100
C1670       C  0.19384499  0.27095142  0.46197515     0.03900
C1671       C  0.17184643  0.29325905  0.46210631    -0.12200
C1672       C  0.17475474  0.31823261  0.48066870     0.23200
C1673       C  0.20093497  0.32175890  0.49729865    -0.12700
C1674       C  0.22284107  0.29943015  0.49718182     0.04600
C1675       C  0.14962717  0.33974416  0.48429011     0.27000
C1676       C  0.14834739  0.36551229  0.46691599    -0.13400
C1677       C  0.12573499  0.38667221  0.47159457     0.05100
C1678       C  0.10316540  0.38198666  0.49320321    -0.09400
C1679       C  0.10356641  0.35490613  0.50927492     0.05900
C1680       C  0.12699541  0.33438370  0.50526586    -0.13700
Br1681     Br  0.20549183  0.35604606  0.52232406    -0.05800
Br1682     Br  0.18802694  0.23544013  0.43909411    -0.00200
Br1683     Br  0.12506679  0.42086361  0.44622727     0.00300
Br1684     Br  0.12820091  0.29838868  0.52831926    -0.04100
Br1685     Br  0.25702280  0.30297719  0.52246555     0.00400
Br1686     Br  0.13641624  0.28855030  0.43882066    -0.03400
Br1687     Br  0.17724405  0.37097437  0.43575963    -0.04300
Br1688     Br  0.07226572  0.34499867  0.53675415    -0.00300
C1689       C  0.89855161  0.57532027  0.48988204     0.01100
C1690       C  0.87359032  0.56785399  0.47230316     0.03900
C1691       C  0.84767770  0.58522996  0.47317267    -0.12200
C1692       C  0.84680712  0.61126666  0.49018442     0.23200
C1693       C  0.87186459  0.61940183  0.50701946    -0.12700
C1694       C  0.89736496  0.60125483  0.50741311     0.04600
C1695       C  0.82069192  0.63153714  0.48858831     0.27000
C1696       C  0.81855446  0.65178777  0.46497382    -0.13400
C1697       C  0.79836072  0.67543620  0.46662236     0.05100
C1698       C  0.78014603  0.67915995  0.49192756    -0.09400
C1699       C  0.77948275  0.65663525  0.51361452     0.05900
C1700       C  0.79957911  0.63264709  0.51175632    -0.13700
Br1701     Br  0.87125107  0.65580664  0.52940350    -0.05800
Br1702     Br  0.87486316  0.53476376  0.44538083    -0.00200
Br1703     Br  0.79767303  0.70463705  0.43532655     0.00300
Br1704     Br  0.79921618  0.60182630  0.54131743    -0.04100
Br1705     Br  0.92973330  0.61139179  0.53340495     0.00400
Br1706     Br  0.81311955  0.57349281  0.45094146    -0.03400
Br1707     Br  0.84469528  0.64824371  0.43117327    -0.04300
Br1708     Br  0.75322646  0.66011334  0.54716259    -0.00300
C1709       C  0.10393836  0.47993382  0.40251081     0.01100
C1710       C  0.12960785  0.49716204  0.40864414     0.03900
C1711       C  0.15478390  0.49525141  0.39025083    -0.12200
C1712       C  0.15427705  0.47743046  0.36476757     0.23200
C1713       C  0.12848284  0.46120270  0.35783694    -0.12700
C1714       C  0.10366443  0.46181090  0.37694766     0.04600
C1715       C  0.18038740  0.47678073  0.34447087     0.27000
C1716       C  0.18364256  0.49882063  0.32265635    -0.13400
C1717       C  0.20647190  0.49661965  0.30145131     0.05100
C1718       C  0.22497013  0.47140783  0.30064663    -0.09400
C1719       C  0.22300707  0.45044052  0.32368476     0.05900
C1720       C  0.20127205  0.45362028  0.34606757    -0.13700
Br1721     Br  0.12717953  0.43820085  0.32187430    -0.05800
Br1722     Br  0.13059117  0.52488134  0.44130883    -0.00200
Br1723     Br  0.21081787  0.52688581  0.27153339     0.00300
Br1724     Br  0.19901762  0.42560759  0.37814298    -0.04100
Br1725     Br  0.07050854  0.43594997  0.36887234     0.00400
Br1726     Br  0.19029740  0.51709432  0.39985286    -0.03400
Br1727     Br  0.15524049  0.53067162  0.32038126    -0.04300
Br1728     Br  0.24791036  0.41587030  0.32272118    -0.00300
C1729       C  0.89902991  0.47409583  0.40218779     0.01100
C1730       C  0.90008613  0.48926305  0.37469098     0.03900
C1731       C  0.87542547  0.48874323  0.35531416    -0.12200
C1732       C  0.84830149  0.47556466  0.36416283     0.23200
C1733       C  0.84669919  0.46187470  0.39223548    -0.12700
C1734       C  0.87217162  0.45945931  0.41017455     0.04600
C1735       C  0.82235756  0.47354854  0.34321884     0.27000
C1736       C  0.80611385  0.49893757  0.33451747    -0.13400
C1737       C  0.78371269  0.49673657  0.31261599     0.05100
C1738       C  0.77609485  0.46897179  0.30041222    -0.09400
C1739       C  0.79018763  0.44340269  0.31156257     0.05900
C1740       C  0.81396258  0.44571694  0.33162629    -0.13700
Br1741     Br  0.80919936  0.44636762  0.40629271    -0.05800
Br1742     Br  0.93446779  0.51240089  0.36374268    -0.00200
Br1743     Br  0.76580482  0.53207776  0.29683978     0.00300
Br1744     Br  0.83699561  0.41082778  0.34067421    -0.04100
Br1745     Br  0.87001732  0.43381267  0.44451338     0.00400
Br1746     Br  0.87934614  0.50539678  0.31611519    -0.03400
Br1747     Br  0.81551328  0.53701358  0.35141211    -0.04300
Br1748     Br  0.77861992  0.40503069  0.29667424    -0.00300
C1749       C  0.10251506  0.48661993  0.59628839     0.01100
C1750       C  0.12959173  0.47125430  0.59042175     0.03900
C1751       C  0.15266767  0.47149383  0.61132826    -0.12200
C1752       C  0.15022763  0.48856853  0.63718776     0.23200
C1753       C  0.12423220  0.50508237  0.64250760    -0.12700
C1754       C  0.10034819  0.50392446  0.62241315     0.04600
C1755       C  0.17583220  0.49068195  0.65783925     0.27000
C1756       C  0.18025109  0.46899850  0.67988955    -0.13400
C1757       C  0.20207600  0.47328518  0.70178263     0.05100
C1758       C  0.22098907  0.49814631  0.70041895    -0.09400
C1759       C  0.21850373  0.51806782  0.67650606     0.05900
C1760       C  0.19560904  0.51476467  0.65566463    -0.13700
Br1761     Br  0.12189189  0.53018230  0.67707096    -0.05800
Br1762     Br  0.13716850  0.45055432  0.55349294    -0.00200
Br1763     Br  0.20381439  0.44695312  0.73534935     0.00300
Br1764     Br  0.19043193  0.54393903  0.62486186    -0.04100
Br1765     Br  0.06621753  0.52881395  0.62961166     0.00400
Br1766     Br  0.18829836  0.44868023  0.60448084    -0.03400
Br1767     Br  0.15586399  0.43388921  0.68045348    -0.04300
Br1768     Br  0.24580314  0.55080576  0.67333545    -0.00300
C1769       C  0.89537440  0.48966760  0.59213926     0.01100
C1770       C  0.86820503  0.50038835  0.58006376     0.03900
C1771       C  0.84143542  0.49775884  0.59597303    -0.12200
C1772       C  0.84166755  0.48894867  0.62580739     0.23200
C1773       C  0.86896756  0.48164455  0.63919171    -0.12700
C1774       C  0.89537295  0.48037367  0.62214971     0.04600
C1775       C  0.81347678  0.48869415  0.64346969     0.27000
C1776       C  0.80042033  0.51557617  0.65271235    -0.13400
C1777       C  0.77598943  0.51532321  0.67234143     0.05100
C1778       C  0.76490851  0.48833186  0.68361274    -0.09400
C1779       C  0.77656607  0.46151648  0.67267411     0.05900
C1780       C  0.80043074  0.46164961  0.65233242    -0.13700
Br1781     Br  0.87017787  0.47410821  0.68126756    -0.05800
Br1782     Br  0.86678310  0.52159824  0.54287096    -0.00200
Br1783     Br  0.75993518  0.55213561  0.68689132     0.00300
Br1784     Br  0.81658715  0.42473110  0.63816589    -0.04100
Br1785     Br  0.93063193  0.46450653  0.64019985     0.00400
Br1786     Br  0.80412272  0.50596410  0.57666514    -0.03400
Br1787     Br  0.81777410  0.55286398  0.64081462    -0.04300
Br1788     Br  0.76214229  0.42462039  0.68873480    -0.00300
C1789       C  0.02498117  0.68543373  0.28618614     0.01100
C1790       C  0.00780528  0.65949169  0.28207391     0.03900
C1791       C  0.00942102  0.63650778  0.30282390    -0.12200
C1792       C  0.02748288  0.63962696  0.32790652     0.23200
C1793       C  0.04712431  0.66377661  0.33022346    -0.12700
C1794       C  0.04606158  0.68658239  0.30907063     0.04600
C1795       C  0.02354501  0.61861802  0.35260377     0.27000
C1796       C  0.99764127  0.62026527  0.37019510    -0.13400
C1797       C  0.99135108  0.59786058  0.39082883     0.05100
C1798       C  0.01221697  0.57535594  0.39582592    -0.09400
C1799       C  0.03876492  0.57459699  0.37920830     0.05900
C1800       C  0.04372054  0.59532950  0.35660357    -0.13700
Br1801     Br  0.07467844  0.66607231  0.36269777    -0.05800
Br1802     Br  0.98016771  0.65547112  0.24972817    -0.00200
Br1803     Br  0.95339462  0.59676018  0.41073727     0.00300
Br1804     Br  0.07722329  0.59099523  0.33017860    -0.04100
Br1805     Br  0.07381177  0.71905479  0.31083622     0.00400
Br1806     Br  0.98574459  0.60109795  0.29794473    -0.03400
Br1807     Br  0.97044409  0.65288987  0.36549446    -0.04300
Br1808     Br  0.06923108  0.54642084  0.38825952    -0.00300
C1809       C  0.06718587  0.28233073  0.70318563     0.01100
C1810       C  0.06757192  0.27465383  0.67284642     0.03900
C1811       C  0.06057774  0.29626368  0.65166687    -0.12200
C1812       C  0.05599668  0.32563617  0.66092480     0.23200
C1813       C  0.06331570  0.33423437  0.68989959    -0.12700
C1814       C  0.07058698  0.31251607  0.71076740     0.04600
C1815       C  0.04384101  0.34758655  0.64036070     0.27000
C1816       C  0.06331449  0.36476145  0.62329106    -0.13400
C1817       C  0.05187548  0.38598574  0.60400238     0.05100
C1818       C  0.02101966  0.39022349  0.60180611    -0.09400
C1819       C  0.00151364  0.37390462  0.61979433     0.05900
C1820       C  0.01294598  0.35219789  0.63891977    -0.13700
Br1821     Br  0.06072770  0.37527955  0.70150982    -0.05800
Br1822     Br  0.07712196  0.23491480  0.66051164    -0.00200
Br1823     Br  0.07886778  0.40929107  0.58086246     0.00300
Br1824     Br  0.98654269  0.32861042  0.66297652    -0.04100
Br1825     Br  0.08342320  0.32417880  0.74983991     0.00400
Br1826     Br  0.05494624  0.28542807  0.61072506    -0.03400
Br1827     Br  0.10566455  0.35916773  0.62653512    -0.04300
Br1828     Br  0.95954923  0.38161009  0.61827587    -0.00300
C1829       C  0.99780112  0.58567851  0.59093022     0.01100
C1830       C  0.02022168  0.60739484  0.59027812     0.03900
C1831       C  0.01802927  0.63216175  0.60874266    -0.12200
C1832       C  0.99433216  0.63431756  0.62895305     0.23200
C1833       C  0.97174337  0.61288012  0.62947474    -0.12700
C1834       C  0.97328990  0.58862309  0.61017582     0.04600
C1835       C  0.99521422  0.65729502  0.65184346     0.27000
C1836       C  0.01266859  0.65250802  0.67708658    -0.13400
C1837       C  0.01681761  0.67542512  0.69747497     0.05100
C1838       C  0.00162649  0.70253667  0.69366978    -0.09400
C1839       C  0.98235618  0.70638625  0.66933343     0.05900
C1840       C  0.98001208  0.68408769  0.64788252    -0.13700
Br1841     Br  0.93897591  0.61684653  0.65680895    -0.05800
Br1842     Br  0.05495556  0.60230626  0.56566688    -0.00200
Br1843     Br  0.04530397  0.66968251  0.72880019     0.00300
Br1844     Br  0.95657996  0.69026515  0.61274361    -0.04100
Br1845     Br  0.94149491  0.56001817  0.60964315     0.00400
Br1846     Br  0.04746601  0.66317474  0.60660683    -0.03400
Br1847     Br  0.03130577  0.61446604  0.68328848    -0.04300
Br1848     Br  0.95795204  0.74135823  0.66576492    -0.00300
C1849       C  0.00807103  0.39743087  0.07683823     0.01100
C1850       C  0.00428696  0.39929613  0.10823679     0.03900
C1851       C  0.00602875  0.37355163  0.12609348    -0.12200
C1852       C  0.01015152  0.34546832  0.11321829     0.23200
C1853       C  0.01419814  0.34321927  0.08249857    -0.12700
C1854       C  0.01452526  0.36881546  0.06452507     0.04600
C1855       C  0.01165484  0.31835924  0.13224954     0.27000
C1856       C  0.03919673  0.30835394  0.14295615    -0.13400
C1857       C  0.04037217  0.28477207  0.16342904     0.05100
C1858       C  0.01405162  0.27141406  0.17391645    -0.09400
C1859       C  0.98674276  0.27991884  0.16145116     0.05900
C1860       C  0.98556871  0.30308417  0.14041785    -0.13700
Br1861     Br  0.01977095  0.30440422  0.06524691    -0.05800
Br1862     Br  0.99688629  0.43643978  0.12825178    -0.00200
Br1863     Br  0.07796922  0.27207737  0.17908090     0.00300
Br1864     Br  0.94813202  0.31506521  0.12385550    -0.04100
Br1865     Br  0.02671403  0.36295561  0.02362560     0.00400
Br1866     Br  0.00337232  0.37644168  0.16876614    -0.03400
Br1867     Br  0.07511738  0.32837985  0.13103025    -0.04300
Br1868     Br  0.95074975  0.26141455  0.17522022    -0.00300
C1869       C  0.99949353  0.09851428  0.38019255     0.01100
C1870       C  0.00805173  0.12886653  0.38147811     0.03900
C1871       C  0.00882369  0.14641422  0.35533030    -0.12200
C1872       C  0.00349692  0.13360466  0.32731417     0.23200
C1873       C  0.99521094  0.10375974  0.32578179    -0.12700
C1874       C  0.99135989  0.08699006  0.35186259     0.04600
C1875       C  0.00698259  0.15114817  0.29926284     0.27000
C1876       C  0.98190944  0.16164809  0.28383810    -0.13400
C1877       C  0.98549365  0.17884063  0.25789821     0.05100
C1878       C  0.01397737  0.18764010  0.24841367    -0.09400
C1879       C  0.03889355  0.17486827  0.26220610     0.05900
C1880       C  0.03544299  0.15645128  0.28730016    -0.13700
Br1881     Br  0.99004602  0.08553558  0.28731939    -0.05800
Br1882     Br  0.02025001  0.14700629  0.41819548    -0.00200
Br1883     Br  0.95137929  0.19366296  0.23707161     0.00300
Br1884     Br  0.06976538  0.13976458  0.30637043    -0.04100
Br1885     Br  0.97251257  0.04905378  0.34732709     0.00400
Br1886     Br  0.01730479  0.18825873  0.35754897    -0.03400
Br1887     Br  0.94274141  0.15468162  0.29964990    -0.04300
Br1888     Br  0.07792592  0.18558010  0.24844051    -0.00300
C1889       C  0.01568994  0.28811423  0.28011348     0.01100
C1890       C  0.99679263  0.28153038  0.30435370     0.03900
C1891       C  0.99768369  0.29916795  0.32968386    -0.12200
C1892       C  0.01596900  0.32426648  0.33007469     0.23200
C1893       C  0.03410422  0.33156578  0.30579802    -0.12700
C1894       C  0.03444706  0.31312367  0.28089137     0.04600
C1895       C  0.01369762  0.34440996  0.35510524     0.27000
C1896       C  0.99034567  0.36487222  0.35564236    -0.13400
C1897       C  0.98693672  0.38340392  0.38006749     0.05100
C1898       C  0.00637508  0.38066120  0.40434140    -0.09400
C1899       C  0.02908047  0.35925959  0.40419790     0.05900
C1900       C  0.03334358  0.34174981  0.37899472    -0.13700
Br1901     Br  0.05806895  0.36700898  0.30682877    -0.05800
Br1902     Br  0.96797601  0.24981603  0.30266939    -0.00200
Br1903     Br  0.95527202  0.41222109  0.38004468     0.00300
Br1904     Br  0.06652465  0.31489913  0.37652577    -0.04100
Br1905     Br  0.06156387  0.32172864  0.24881214     0.00400
Br1906     Br  0.97331413  0.28960565  0.36379545    -0.03400
Br1907     Br  0.96312261  0.36743156  0.32273756    -0.04300
Br1908     Br  0.05497028  0.35429424  0.43768742    -0.00300
loop_ 
_geom_bond_atom_site_label_1 
_geom_bond_atom_site_label_2 
_geom_bond_distance 
_geom_bond_site_symmetry_2 
_ccdc_geom_bond_type 
C1            N2   1.355       .  A
C1            N6   1.376       .  A
C1         C1858   1.482       .  S
N2            C3   1.348       .  A
C3            N4   1.341       .  A
C3         C1889   1.460       .  S
N4            C5   1.346       .  A
C5            N6   1.374       .  A
C5         C1878   1.478       .  S
O7           C18   1.284       .  A
O7          Eu43   2.407       .  S
O8           C19   1.290       .  A
O8          Eu42   2.452       .  S
O9           C20   1.295       .  A
O9          Eu15   2.489       .  S
O10          C21   1.294       .  A
O10         Eu15   2.479   1_655  S
O11          C21   1.290       .  A
O11         Eu45   2.461       .  S
O12          C20   1.296       .  A
O12         Eu44   2.492       .  S
O13          C19   1.291       .  A
O13         Eu15   2.455       .  S
O14          C18   1.289       .  A
O14         Eu15   2.446       .  S
Eu15         O25   2.363   1_455  S
Eu15         O17   2.355       .  S
Eu15         O16   2.363   1_455  S
Eu15         O23   2.346       .  S
O16         Eu45   2.351       .  S
O16         Eu42   2.364   1_655  S
O17         Eu43   2.359       .  S
O17         Eu44   2.336       .  S
C18        C1898   1.453       .  S
C19        C1818   1.461       .  S
C20        C1678   1.514       .  S
C21        C1658   1.491       .  S
H22          O23   0.961       .  S
O23         Eu44   2.326       .  S
O23         Eu42   2.366       .  S
H24          O25   0.966       .  S
O25         Eu43   2.366   1_655  S
O25         Eu45   2.335       .  S
O26          C49   1.291       .  A
O26         Eu42   2.453   1_655  S
O27          C50   1.290       .  A
O27         Eu43   2.452       .  S
O28          C51   1.283       .  A
O28         Eu44   2.422       .  S
O29          C52   1.281       .  A
O29         Eu45   2.411       .  S
O30          C53   1.285       .  A
O30         Eu45   2.428       .  S
O31          C54   1.284       .  A
O31         Eu44   2.425       .  S
O32          C55   1.299       .  A
O32         Eu46   2.504       .  S
O33          C56   1.298       .  A
O33         Eu46   2.498   1_655  S
O34          C55   1.289       .  A
O34         Eu44   2.452       .  S
O35          C56   1.287       .  A
O35         Eu45   2.440       .  S
O36          C51   1.299       .  A
O36         Eu42   2.503       .  S
O37          C54   1.296       .  A
O37         Eu43   2.489       .  S
O38          C53   1.301       .  A
O38         Eu43   2.519   1_655  S
O39          C52   1.302       .  A
O39         Eu42   2.528   1_655  S
O40          C49   1.287       .  A
O40         Eu46   2.429   1_655  S
O41          C50   1.289       .  A
O41         Eu46   2.449       .  S
Eu42         O60   2.352   1_455  S
Eu42         O48   2.361       .  S
Eu43         O47   2.340   1_455  S
Eu43         O58   2.354       .  S
Eu44         O58   2.346       .  S
Eu44         O48   2.357       .  S
Eu45         O47   2.355       .  S
Eu45         O60   2.348       .  S
Eu46         O47   2.357   1_455  S
Eu46         O58   2.345       .  S
Eu46         O60   2.360   1_455  S
Eu46         O48   2.356       .  S
C49        C1829   1.460       .  S
C50        C1798   1.467       .  S
C51        C1749   1.499       .  S
C52        C1769   1.508       .  S
C53        C1729   1.509       .  S
C54        C1709   1.492       .  S
C55        C1638   1.500       .  S
C56        C1689   1.497       .  S
H57          O58   0.965       .  S
H59          O60   0.966       .  S
C61          N62   1.352       .  A
C61          N66   1.372       .  A
C61        C1589   1.476       .  S
N62          C63   1.346       .  A
C63          N64   1.347       .  A
C63        C1838   1.468       .  S
N64          C65   1.353       .  A
C65          N66   1.372       .  A
C65        C1618   1.480       .  S
C67          N68   1.349       .  A
C67          N72   1.372       .  A
C67        C1549   1.486       .  S
N68          C69   1.349       .  A
C69          N70   1.352       .  A
C69        C1809   1.487       .  S
N70          C71   1.356       .  A
C71          N72   1.374       .  A
C71        C1569   1.488       .  S
C73          N74   1.374   1_455  A
C73          N78   1.349       .  A
C73        C1509   1.479   1_455  S
N74          C75   1.375   1_655  A
C75          N76   1.360       .  A
C75        C1538   1.503   1_455  S
N76          C77   1.354       .  A
C77          N78   1.343       .  A
C77        C1789   1.471       .  S
O79          C90   1.289       .  A
O79        Eu115   2.458       .  S
O80          C91   1.287       .  A
O80        Eu114   2.438       .  S
O81          C92   1.283       .  A
O81         Eu87   2.409       .  S
O82          C93   1.289       .  A
O82         Eu87   2.456   1_455  S
O83          C93   1.290       .  A
O83        Eu117   2.453       .  S
O84          C92   1.295       .  A
O84        Eu116   2.479       .  S
O85          C91   1.299       .  A
O85         Eu87   2.514       .  S
O86          C90   1.299   1_655  A
O86         Eu87   2.516       .  S
Eu87         O97   2.360   1_655  S
Eu87         O89   2.358       .  S
Eu87         O88   2.349   1_655  S
Eu87         O95   2.379       .  S
O88        Eu117   2.350       .  S
O88        Eu114   2.342   1_455  S
O89        Eu115   2.349   1_655  S
O89        Eu116   2.354       .  S
C90        C1869   1.523   1_455  S
C91        C1578   1.505       .  S
C92        C1478   1.459       .  S
C93        C1489   1.468       .  S
H94          O95   0.966       .  S
O95        Eu116   2.373       .  S
O95        Eu114   2.368       .  S
H96          O97   0.966       .  S
O97        Eu115   2.376       .  S
O97        Eu117   2.367       .  S
O98         C121   1.289       .  A
O98        Eu114   2.451   1_465  S
O99         C122   1.297       .  A
O99        Eu115   2.500   1_565  S
O100        C123   1.302       .  A
O100       Eu116   2.524       .  S
O101        C124   1.300       .  A
O101       Eu117   2.513       .  S
O102        C125   1.293       .  A
O102       Eu117   2.477       .  S
O103        C126   1.300       .  A
O103       Eu116   2.519   1_565  S
O104        C127   1.284       .  A
O104       Eu118   2.424   1_655  S
O105        C128   1.287       .  A
O105       Eu118   2.431       .  S
O106        C127   1.294       .  A
O106       Eu116   2.476   1_565  S
O107        C128   1.293       .  A
O107       Eu117   2.468   1_565  S
O108        C123   1.288       .  A
O108       Eu114   2.444       .  S
O109        C126   1.288   1_545  A
O109       Eu115   2.453   1_655  S
O110        C125   1.290       .  A
O110       Eu115   2.451       .  S
O111        C124   1.286       .  A
O111       Eu114   2.440   1_455  S
O112        C121   1.292       .  A
O112       Eu118   2.471       .  S
O113        C122   1.293       .  A
O113       Eu118   2.483       .  S
Eu114       O132   2.350   1_645  S
Eu114       O120   2.333   1_545  S
Eu115       O119   2.347   1_545  S
Eu115       O130   2.350   1_445  S
Eu116       O130   2.360   1_545  S
Eu116       O120   2.353   1_545  S
Eu117       O119   2.372   1_545  S
Eu117       O132   2.351   1_545  S
Eu118       O119   2.353       .  S
Eu118       O130   2.351   1_455  S
Eu118       O132   2.349       .  S
Eu118       O120   2.346   1_455  S
C121       C1609   1.486       .  S
C122       C1529   1.500   1_455  S
C123       C1349   1.506   1_545  S
C124       C1369   1.510       .  S
C125       C1398   1.500       .  S
C126       C1418   1.523       .  S
C127       C1458   1.484       .  S
C128       C1429   1.469       .  S
H129        O130   0.965       .  S
H131        O132   0.966       .  S
C133        N134   1.351       .  A
C133        N138   1.374       .  A
C133       C1669   1.486       .  S
N134        C135   1.349       .  A
C135        N136   1.353       .  A
C135       C1498   1.490       .  S
N136        C137   1.358       .  A
C137        N138   1.375       .  A
C137       C1338   1.499       .  S
C139        N140   1.354       .  A
C139        N144   1.373       .  A
C139       C1309   1.498       .  S
N140        C141   1.348       .  A
C141        N142   1.353       .  A
C141       C1469   1.488       .  S
N142        C143   1.354       .  A
C143        N144   1.372       .  A
C143       C1649   1.485       .  S
C145        N146   1.355       .  A
C145        N150   1.374       .  A
C145       C1289   1.488       .  S
N146        C147   1.348       .  A
C147        N148   1.346       .  A
C147       C1449   1.467       .  S
N148        C149   1.355       .  A
C149        N150   1.374       .  A
C149       C1698   1.486       .  S
C151        N152   1.357       .  A
C151        N156   1.373       .  A
C151       C1629   1.488       .  S
N152        C153   1.349       .  A
C153        N154   1.346       .  A
C153       C1438   1.463       .  S
N154        C155   1.354       .  A
C155        N156   1.371       .  A
C155       C1269   1.481       .  S
C157        N158   1.376       .  A
C157        N162   1.353       .  A
C157       C1238   1.488       .  S
N158        C159   1.375       .  A
C159        N160   1.347       .  A
C159       C1409   1.479       .  S
N160        C161   1.341       .  A
C161        N162   1.346       .  A
C161       C1249   1.452       .  S
O163        C174   1.293       .  A
O163       Eu199   2.470       .  S
O164        C175   1.284       .  A
O164       Eu198   2.426       .  S
O165        C176   1.288       .  A
O165       Eu171   2.437       .  S
O166        C177   1.285       .  A
O166       Eu171   2.426       .  S
O167        C177   1.288       .  A
O167       Eu201   2.434       .  S
O168        C176   1.287       .  A
O168       Eu200   2.435       .  S
O169        C175   1.297       .  A
O169       Eu171   2.492       .  S
O170        C174   1.295       .  A
O170       Eu171   2.484   1_545  S
Eu171       O181   2.367   1_565  S
Eu171       O173   2.356   1_565  S
Eu171       O172   2.347       .  S
Eu171       O179   2.347       .  S
O172       Eu201   2.346       .  S
O172       Eu198   2.346       .  S
O173       Eu199   2.360       .  S
O173       Eu200   2.353   1_545  S
C174       C1329   1.492       .  S
C175       C1278   1.490       .  S
C176       C1178   1.462       .  S
C177       C1209   1.457       .  S
H178        O179   0.965       .  S
O179       Eu200   2.351       .  S
O179       Eu198   2.342       .  S
H180        O181   0.966       .  S
O181       Eu199   2.359       .  S
O181       Eu201   2.357   1_545  S
O182        C205   1.284       .  A
O182       Eu198   2.427       .  S
O183        C206   1.289       .  A
O183       Eu199   2.466       .  S
O184        C207   1.297       .  A
O184       Eu200   2.497       .  S
O185        C208   1.296       .  A
O185       Eu201   2.494       .  S
O186        C209   1.297       .  A
O186       Eu201   2.498   1_545  S
O187        C210   1.298       .  A
O187       Eu200   2.500   1_545  S
O188        C211   1.286       .  A
O188       Eu202   2.429       .  S
O189        C212   1.290       .  A
O189       Eu202   2.441       .  S
O190        C211   1.285       .  A
O190       Eu200   2.414       .  S
O191        C212   1.284       .  A
O191       Eu201   2.418       .  S
O192        C207   1.291       .  A
O192       Eu198   2.463       .  S
O193        C210   1.291       .  A
O193       Eu199   2.461       .  S
O194        C209   1.292       .  A
O194       Eu199   2.463       .  S
O195        C208   1.291       .  A
O195       Eu198   2.463       .  S
O196        C205   1.301       .  A
O196       Eu202   2.520       .  S
O197        C206   1.298       .  A
O197       Eu202   2.506   1_545  S
Eu198       O216   2.338       .  S
Eu198       O204   2.346       .  S
Eu199       O203   2.356       .  S
Eu199       O214   2.351       .  S
Eu200       O214   2.354   1_565  S
Eu200       O204   2.353       .  S
Eu201       O203   2.357   1_565  S
Eu201       O216   2.362       .  S
Eu202       O203   2.361   1_565  S
Eu202       O214   2.360   1_565  S
Eu202       O216   2.351       .  S
Eu202       O204   2.352       .  S
C205       C1298   1.506       .  S
C206       C1318   1.530       .  S
C207       C1109   1.504       .  S
C208       C1149   1.507       .  S
C209       C1138   1.500       .  S
C210       C1089   1.493       .  S
C211       C1258   1.451       .  S
C212       C1189   1.448       .  S
H213        O214   0.966       .  S
H215        O216   0.964       .  S
C217        N218   1.379   1_565  A
C217        N222   1.350       .  A
C217       C1069   1.489       .  S
N218        C219   1.377       .  A
C219        N220   1.349   1_545  A
C219       C1378   1.478       .  S
N220        C221   1.340       .  A
C221        N222   1.344       .  A
C221       C1218   1.448       .  S
C223        N224   1.377       .  A
C223        N228   1.351   1_545  A
C223       C1058   1.481       .  S
N224        C225   1.376   1_545  A
C225        N226   1.350       .  A
C225       C1358   1.490       .  S
N226        C227   1.341       .  A
C227        N228   1.345       .  A
C227       C1198   1.458       .  S
C229        N230   1.366   1_565  A
C229        N234   1.352       .  A
C229       C1038   1.466   1_565  S
N230        C231   1.366   1_545  A
C231        N232   1.351       .  A
C231       C1389   1.470   1_565  S
N232        C233   1.348       .  A
C233        N234   1.347       .  A
C233       C1169   1.462       .  S
O235        C246   1.285       .  A
O235       Eu271   2.434   1_554  S
O236        C247   1.285       .  A
O236       Eu270   2.433   1_554  S
O237        C248   1.291       .  A
O237       Eu243   2.457       .  S
O238        C249   1.284       .  A
O238       Eu243   2.418   1_565  S
O239        C249   1.292       .  A
O239       Eu273   2.461   1_554  S
O240        C248   1.290       .  A
O240       Eu272   2.460   1_554  S
O241        C247   1.298       .  A
O241       Eu243   2.497       .  S
O242        C246   1.303       .  A
O242       Eu243   2.530       .  S
Eu243       O253   2.362   1_545  S
Eu243       O245   2.355       .  S
Eu243       O244   2.366   1_545  S
Eu243       O251   2.347       .  S
O244       Eu273   2.346   1_554  S
O244       Eu270   2.345   1_564  S
O245       Eu271   2.366   1_554  S
O245       Eu272   2.369   1_554  S
C246       C1229   1.516       .  S
C247       C1029   1.497       .  S
C248       C1009   1.468       .  S
C249        C998   1.461       .  S
H250        O251   0.963       .  S
O251       Eu272   2.338   1_554  S
O251       Eu270   2.341   1_554  S
H252        O253   0.966       .  S
O253       Eu271   2.351   1_564  S
O253       Eu273   2.358   1_554  S
O254        C277   1.289       .  A
O254       Eu270   2.450   1_565  S
O255        C278   1.286       .  A
O255       Eu271   2.433       .  S
O256        C279   1.300       .  A
O256       Eu272   2.517       .  S
O257        C280   1.296       .  A
O257       Eu273   2.494       .  S
O258        C281   1.295       .  A
O258       Eu273   2.488       .  S
O259        C282   1.299       .  A
O259       Eu272   2.501       .  S
O260        C283   1.291       .  A
O260       Eu274   2.459       .  S
O261        C284   1.294       .  A
O261       Eu274   2.470   1_565  S
O262        C283   1.289       .  A
O262       Eu272   2.443       .  S
O263        C284   1.288       .  A
O263       Eu273   2.442       .  S
O264        C279   1.286       .  A
O264       Eu270   2.449       .  S
O265        C282   1.288       .  A
O265       Eu271   2.444       .  S
O266        C281   1.294       .  A
O266       Eu271   2.486   1_565  S
O267        C280   1.287       .  A
O267       Eu270   2.444   1_565  S
O268        C277   1.301       .  A
O268       Eu274   2.520   1_565  S
O269        C278   1.302       .  A
O269       Eu274   2.524       .  S
Eu270       O288   2.350   1_545  S
Eu270       O276   2.331       .  S
Eu271       O275   2.338   1_545  S
Eu271       O286   2.372       .  S
Eu272       O286   2.379       .  S
Eu272       O276   2.351       .  S
Eu273       O275   2.358       .  S
Eu273       O288   2.365       .  S
Eu274       O275   2.353   1_545  S
Eu274       O286   2.376       .  S
Eu274       O288   2.375   1_545  S
Eu274       O276   2.351       .  S
C277       C1078   1.514       .  S
C278       C1049   1.508       .  S
C279        C929   1.521       .  S
C280        C889   1.498       .  S
C281        C909   1.499       .  S
C282        C869   1.491       .  S
C283        C949   1.465       .  S
C284        C969   1.484       .  S
H285        O286   0.966       .  S
H287        O288   0.966       .  S
C289        N290   1.360       .  A
C289        N294   1.371       .  A
C289       C1098   1.497       .  S
N290        C291   1.356       .  A
C291        N292   1.352       .  A
C291       C1018   1.497       .  S
N292        C293   1.353       .  A
C293        N294   1.370       .  A
C293        C849   1.484       .  S
C295        N296   1.358       .  A
C295        N300   1.375       .  A
C295        C838   1.494       .  S
N296        C297   1.351       .  A
C297        N298   1.345       .  A
C297        C989   1.466       .  S
N298        C299   1.351       .  A
C299        N300   1.372       .  A
C299       C1118   1.482       .  S
C301        N302   1.372       .  A
C301        N306   1.356       .  A
C301        C809   1.484       .  S
N302        C303   1.370       .  A
C303        N304   1.351       .  A
C303       C1158   1.480       .  S
N304        C305   1.349       .  A
C305        N306   1.351       .  A
C305        C978   1.473       .  S
C307        N308   1.372       .  A
C307        N312   1.351       .  A
C307       C1129   1.486       .  S
N308        C309   1.373       .  A
C309        N310   1.354       .  A
C309        C789   1.490       .  S
N310        C311   1.352       .  A
C311        N312   1.351       .  A
C311        C958   1.488       .  S
O313        C324   1.283       .  A
O313       Eu349   2.439   1_554  S
O314        C325   1.285       .  A
O314       Eu348   2.428   1_654  S
O315        C326   1.291       .  A
O315       Eu321   2.453       .  S
O316        C327   1.290       .  A
O316       Eu321   2.447   1_655  S
O317        C327   1.289       .  A
O317       Eu351   2.444   1_554  S
O318        C326   1.288       .  A
O318       Eu350   2.444   1_554  S
O319        C325   1.301       .  A
O319       Eu321   2.518   1_655  S
O320        C324   1.298       .  A
O320       Eu321   2.508       .  S
Eu321       O331   2.356   1_455  S
Eu321       O323   2.359       .  S
Eu321       O322   2.369   1_455  S
Eu321       O329   2.354       .  S
O322       Eu351   2.360   1_554  S
O322       Eu348   2.347   1_654  S
O323       Eu349   2.350   1_554  S
O323       Eu350   2.355   1_554  S
C324       C1849   1.523       .  S
C325       C1518   1.504       .  S
C326        C758   1.462       .  S
C327        C769   1.458       .  S
H328        O329   0.966       .  S
O329       Eu350   2.371   1_554  S
O329       Eu348   2.357   1_554  S
H330        O331   0.964       .  S
O331       Eu349   2.335   1_654  S
O331       Eu351   2.356   1_554  S
O332        C355   1.284       .  A
O332       Eu348   2.427       .  S
O333        C356   1.286       .  A
O333       Eu349   2.434       .  S
O334        C357   1.300       .  A
O334       Eu350   2.515       .  S
O335        C358   1.298       .  A
O335       Eu351   2.512       .  S
O336        C359   1.297       .  A
O336       Eu351   2.494       .  S
O337        C360   1.302       .  A
O337       Eu350   2.527       .  S
O338        C361   1.291       .  A
O338       Eu352   2.455       .  S
O339        C362   1.288       .  A
O339       Eu352   2.437   1_655  S
O340        C361   1.289       .  A
O340       Eu350   2.447       .  S
O341        C362   1.289       .  A
O341       Eu351   2.437       .  S
O342        C357   1.288       .  A
O342       Eu348   2.447       .  S
O343        C360   1.288       .  A
O343       Eu349   2.445       .  S
O344        C359   1.292       .  A
O344       Eu349   2.471   1_655  S
O345        C358   1.288       .  A
O345       Eu348   2.465   1_655  S
O346        C355   1.302       .  A
O346       Eu352   2.521       .  S
O347        C356   1.303       .  A
O347       Eu352   2.526       .  S
Eu348       O366   2.346   1_455  S
Eu348       O354   2.346       .  S
Eu349       O353   2.339   1_455  S
Eu349       O364   2.368       .  S
Eu350       O364   2.375       .  S
Eu350       O354   2.353       .  S
Eu351       O353   2.356       .  S
Eu351       O366   2.355       .  S
Eu352       O353   2.360   1_455  S
Eu352       O364   2.365       .  S
Eu352       O366   2.366   1_455  S
Eu352       O354   2.351       .  S
C355       C1598   1.506       .  S
C356       C1558   1.504   1_455  S
C357        C678   1.511       .  S
C358        C629   1.532       .  S
C359        C649   1.508       .  S
C360        C698   1.509       .  S
C361        C738   1.465       .  S
C362        C709   1.456       .  S
H363        O364   0.966       .  S
H365        O366   0.966       .  S
C367        N368   1.351       .  A
C367        N372   1.378       .  A
C367       C1738   1.490       .  S
N368        C369   1.342       .  A
C369        N370   1.347       .  A
C369        C778   1.469       .  S
N370        C371   1.352       .  A
C371        N372   1.378       .  A
C371        C609   1.490       .  S
C373        N374   1.370       .  A
C373        N378   1.354       .  A
C373        C589   1.481       .  S
N374        C375   1.369       .  A
C375        N376   1.351       .  A
C375       C1718   1.479       .  S
N376        C377   1.345       .  A
C377        N378   1.349       .  A
C377        C749   1.496       .  S
C379        N380   1.367       .  A
C379        N384   1.352       .  A
C379        C569   1.474       .  S
N380        C381   1.368       .  A
C381        N382   1.355       .  A
C381       C1758   1.478       .  S
N382        C383   1.352       .  A
C383        N384   1.347       .  A
C383        C729   1.494       .  S
C385        N386   1.349       .  A
C385        N390   1.373       .  A
C385       C1778   1.478       .  S
N386        C387   1.344       .  A
C387        N388   1.347       .  A
C387        C718   1.461       .  S
N388        C389   1.354       .  A
C389        N390   1.374       .  A
C389        C549   1.480       .  S
C391        N392   1.357       .  A
C391        N396   1.379       .  A
C391        C689   1.492   1_554  S
N392        C393   1.350       .  A
C393        N394   1.341       .  A
C393        C529   1.456       .  S
N394        C395   1.347       .  A
C395        N396   1.377       .  A
C395        C938   1.486       .  S
O397        C408   1.290       .  A
O397       Eu433   2.460       .  S
O398        C409   1.287       .  A
O398       Eu432   2.445       .  S
O399        C410   1.288   1_556  A
O399       Eu405   2.448       .  S
O400        C411   1.288       .  A
O400       Eu405   2.443       .  S
O401        C411   1.289       .  A
O401       Eu435   2.446       .  S
O402        C410   1.289       .  A
O402       Eu434   2.440       .  S
O403        C409   1.301       .  A
O403       Eu405   2.519       .  S
O404        C408   1.300       .  A
O404       Eu405   2.509   1_554  S
Eu405       O415   2.378   1_556  S
Eu405       O407   2.364   1_556  S
Eu405       O406   2.349       .  S
Eu405       O413   2.362       .  S
O406       Eu435   2.359       .  S
O406       Eu432   2.340       .  S
O407       Eu433   2.356       .  S
O407       Eu434   2.356       .  S
C408        C858   1.493       .  S
C409        C798   1.511       .  S
C410        C538   1.481       .  S
C411        C478   1.459       .  S
H412        O413   0.965       .  S
O413       Eu434   2.356   1_556  S
O413       Eu432   2.355       .  S
H414        O415   0.966       .  S
O415       Eu433   2.369       .  S
O415       Eu435   2.364   1_554  S
O416        C439   1.289       .  A
O416       Eu432   2.459       .  S
O417        C440   1.292       .  A
O417       Eu433   2.470       .  S
O418        C441   1.299       .  A
O418       Eu434   2.509   1_556  S
O419        C442   1.297       .  A
O419       Eu435   2.501       .  S
O420        C443   1.303       .  A
O420       Eu435   2.532   1_554  S
O421        C444   1.297       .  A
O421       Eu434   2.497       .  S
O422        C445   1.292       .  A
O422       Eu436   2.460   1_554  S
O423        C446   1.292       .  A
O423       Eu436   2.467       .  S
O424        C445   1.285       .  A
O424       Eu434   2.432       .  S
O425        C446   1.288       .  A
O425       Eu435   2.441       .  S
O426        C441   1.283       .  A
O426       Eu432   2.420       .  S
O427        C444   1.289       .  A
O427       Eu433   2.458       .  S
O428        C443   1.287       .  A
O428       Eu433   2.439       .  S
O429        C442   1.288       .  A
O429       Eu432   2.448       .  S
O430        C439   1.294       .  A
O430       Eu436   2.486       .  S
O431        C440   1.292       .  A
O431       Eu436   2.462   1_554  S
Eu432       O450   2.334       .  S
Eu432       O438   2.345       .  S
Eu433       O437   2.355       .  S
Eu433       O448   2.348       .  S
Eu434       O448   2.351       .  S
Eu434       O438   2.359   1_554  S
Eu435       O437   2.357   1_556  S
Eu435       O450   2.359       .  S
Eu436       O437   2.369   1_556  S
Eu436       O448   2.352   1_556  S
Eu436       O450   2.340       .  S
Eu436       O438   2.347       .  S
C439        C818   1.509       .  S
C440        C829   1.496       .  S
C441        C578   1.479       .  S
C442        C558   1.508       .  S
C443        C618   1.508       .  S
C444        C598   1.507       .  S
C445        C498   1.480       .  S
C446        C509   1.464       .  S
H447        O448   0.964       .  S
H449        O450   0.946       .  S
C451        N452   1.374       .  A
C451        N456   1.359       .  A
C451        C918   1.507       .  S
N452        C453   1.375       .  A
C453        N454   1.354       .  A
C453        C638   1.493       .  S
N454        C455   1.348       .  A
C455        N456   1.352       .  A
C455        C518   1.502       .  S
C457        N458   1.373       .  A
C457        N462   1.357       .  A
C457        C898   1.486       .  S
N458        C459   1.371       .  A
C459        N460   1.353       .  A
C459        C669   1.478       .  S
N460        C461   1.347       .  A
C461        N462   1.351       .  A
C461        C489   1.464       .  S
C463        N464   1.350       .  A
C463        N468   1.371       .  A
C463        C658   1.484       .  S
N464        C465   1.347       .  A
C465        N466   1.354       .  A
C465        C469   1.488       .  S
N466        C467   1.356       .  A
C467        N468   1.372       .  A
C467        C878   1.486       .  S
C469        C470   1.417       .  A
C469        C474   1.412       .  A
C470        C471   1.401       .  A
C470       Br482   1.931       .  S
C471        C472   1.403       .  A
C471       Br486   1.930       .  S
C472        C475   1.467       .  S
C472        C473   1.407       .  A
C473        C474   1.402       .  A
C473       Br481   1.929       .  S
C474       Br485   1.930       .  S
C475        C476   1.411       .  A
C475        C480   1.401       .  A
C476        C477   1.402       .  A
C476       Br487   1.926       .  S
C477        C478   1.401       .  A
C477       Br483   1.928   1_556  S
C478        C479   1.409       .  A
C479        C480   1.398       .  A
C479       Br488   1.916       .  S
C480       Br484   1.932       .  S
C489        C490   1.411   1_556  A
C489        C494   1.407       .  A
C490        C491   1.401       .  A
C490       Br502   1.929       .  S
C491        C492   1.404       .  A
C491       Br506   1.931       .  S
C492        C495   1.469       .  S
C492        C493   1.408   1_554  A
C493        C494   1.403       .  A
C493       Br501   1.931       .  S
C494       Br505   1.929       .  S
C495        C496   1.403       .  A
C495        C500   1.404   1_554  A
C496        C497   1.399       .  A
C496       Br507   1.932       .  S
C497        C498   1.415       .  A
C497       Br503   1.934       .  S
C498        C499   1.421   1_554  A
C499        C500   1.406       .  A
C499       Br508   1.934       .  S
C500       Br504   1.932       .  S
C509        C510   1.410       .  A
C509        C514   1.404       .  A
C510        C511   1.404       .  A
C510       Br522   1.928       .  S
C511        C512   1.407       .  A
C511       Br526   1.931       .  S
C512        C515   1.479       .  S
C512        C513   1.413       .  A
C513        C514   1.405       .  A
C513       Br521   1.930   1_556  S
C514       Br525   1.930   1_556  S
C515        C516   1.403       .  A
C515        C520   1.404       .  A
C516        C517   1.405       .  A
C516       Br527   1.937       .  S
C517        C518   1.427       .  A
C517       Br523   1.938       .  S
C518        C519   1.424       .  A
C519        C520   1.408       .  A
C519       Br528   1.935       .  S
C520       Br524   1.932       .  S
C529        C530   1.404       .  A
C529        C534   1.412       .  A
C530        C531   1.405       .  A
C530       Br542   1.927       .  S
C531        C532   1.408       .  A
C531       Br546   1.926       .  S
C532        C535   1.466       .  S
C532        C533   1.403       .  A
C533        C534   1.393       .  A
C533       Br541   1.935   1_554  S
C534       Br545   1.933   1_554  S
C535        C536   1.405       .  A
C535        C540   1.403       .  A
C536        C537   1.397   1_554  A
C536       Br547   1.936   1_554  S
C537        C538   1.416   1_556  A
C537       Br543   1.937       .  S
C538        C539   1.419       .  A
C539        C540   1.405       .  A
C539       Br548   1.932       .  S
C540       Br544   1.932       .  S
C549        C550   1.411       .  A
C549        C554   1.411       .  A
C550        C551   1.409       .  A
C550       Br562   1.930       .  S
C551        C552   1.410       .  A
C551       Br566   1.930       .  S
C552        C555   1.494       .  S
C552        C553   1.411       .  A
C553        C554   1.413       .  A
C553       Br561   1.929       .  S
C554       Br565   1.926       .  S
C555        C556   1.410       .  A
C555        C560   1.403       .  A
C556        C557   1.414       .  A
C556       Br567   1.933       .  S
C557        C558   1.421       .  A
C557       Br563   1.933       .  S
C558        C559   1.427       .  A
C559        C560   1.410       .  A
C559       Br568   1.932       .  S
C560       Br564   1.932       .  S
C569        C570   1.408       .  A
C569        C574   1.411       .  A
C570        C571   1.412       .  A
C570       Br582   1.926       .  S
C571        C572   1.413       .  A
C571       Br586   1.928       .  S
C572        C575   1.490       .  S
C572        C573   1.409       .  A
C573        C574   1.406       .  A
C573       Br581   1.931       .  S
C574       Br585   1.931       .  S
C575        C576   1.408       .  A
C575        C580   1.412       .  A
C576        C577   1.408       .  A
C576       Br587   1.929       .  S
C577        C578   1.412       .  A
C577       Br583   1.930       .  S
C578        C579   1.412       .  A
C579        C580   1.411       .  A
C579       Br588   1.930       .  S
C580       Br584   1.929       .  S
C589        C590   1.412       .  A
C589        C594   1.410       .  A
C590        C591   1.409       .  A
C590       Br602   1.931       .  S
C591        C592   1.411       .  A
C591       Br606   1.932       .  S
C592        C595   1.499       .  S
C592        C593   1.414       .  A
C593        C594   1.414       .  A
C593       Br601   1.928       .  S
C594       Br605   1.929       .  S
C595        C596   1.407       .  A
C595        C600   1.411       .  A
C596        C597   1.413       .  A
C596       Br607   1.931       .  S
C597        C598   1.424       .  A
C597       Br603   1.933       .  S
C598        C599   1.420       .  A
C599        C600   1.414       .  A
C599       Br608   1.930       .  S
C600       Br604   1.932       .  S
C609        C610   1.412       .  A
C609        C614   1.413       .  A
C610        C611   1.419       .  A
C610       Br622   1.927       .  S
C611        C612   1.415       .  A
C611       Br626   1.928       .  S
C612        C615   1.507       .  S
C612        C613   1.410       .  A
C613        C614   1.413       .  A
C613       Br621   1.929       .  S
C614       Br625   1.929       .  S
C615        C616   1.414       .  A
C615        C620   1.408       .  A
C616        C617   1.420       .  A
C616       Br627   1.929       .  S
C617        C618   1.416       .  A
C617       Br623   1.926       .  S
C618        C619   1.422       .  A
C619        C620   1.414       .  A
C619       Br628   1.931       .  S
C620       Br624   1.931       .  S
C629        C630   1.430       .  A
C629        C634   1.436       .  A
C630        C631   1.422       .  A
C630       Br642   1.934       .  S
C631        C632   1.410       .  A
C631       Br646   1.933       .  S
C632        C635   1.510       .  S
C632        C633   1.404       .  A
C633        C634   1.417       .  A
C633       Br641   1.935       .  S
C634       Br645   1.938       .  S
C635        C636   1.413       .  A
C635        C640   1.415   1_556  A
C636        C637   1.413       .  A
C636       Br647   1.931       .  S
C637        C638   1.414       .  A
C637       Br643   1.930       .  S
C638        C639   1.412   1_556  A
C639        C640   1.418       .  A
C639       Br648   1.928       .  S
C640       Br644   1.926       .  S
C649        C650   1.424       .  A
C649        C654   1.419       .  A
C650        C651   1.413       .  A
C650       Br662   1.926   1_556  S
C651        C652   1.405       .  A
C651       Br666   1.933   1_556  S
C652        C655   1.500       .  S
C652        C653   1.411       .  A
C653        C654   1.416       .  A
C653       Br661   1.929       .  S
C654       Br665   1.933       .  S
C655        C656   1.410       .  A
C655        C660   1.412       .  A
C656        C657   1.411       .  A
C656       Br667   1.929       .  S
C657        C658   1.412       .  A
C657       Br663   1.930       .  S
C658        C659   1.413       .  A
C659        C660   1.415       .  A
C659       Br668   1.927   1_556  S
C660       Br664   1.928   1_556  S
C669        C670   1.409       .  A
C669        C674   1.408   1_556  A
C670        C671   1.412       .  A
C670       Br682   1.926       .  S
C671        C672   1.413       .  A
C671       Br686   1.929       .  S
C672        C675   1.499       .  S
C672        C673   1.413   1_556  A
C673        C674   1.411       .  A
C673       Br681   1.929       .  S
C674       Br685   1.928       .  S
C675        C676   1.405   1_556  A
C675        C680   1.413       .  A
C676        C677   1.410       .  A
C676       Br687   1.932       .  S
C677        C678   1.426   1_554  A
C677       Br683   1.932       .  S
C678        C679   1.420       .  A
C679        C680   1.416       .  A
C679       Br688   1.930       .  S
C680       Br684   1.933       .  S
C689        C690   1.413       .  A
C689        C694   1.413   1_556  A
C690        C691   1.414       .  A
C690       Br702   1.929       .  S
C691        C692   1.413       .  A
C691       Br706   1.929       .  S
C692        C695   1.509       .  S
C692        C693   1.415   1_556  A
C693        C694   1.418       .  A
C693       Br701   1.930       .  S
C694       Br705   1.927       .  S
C695        C696   1.415   1_556  A
C695        C700   1.410       .  A
C696        C697   1.419   1_554  A
C696       Br707   1.930       .  S
C697        C698   1.417       .  A
C697       Br703   1.929   1_556  S
C698        C699   1.422       .  A
C699        C700   1.415       .  A
C699       Br708   1.933       .  S
C700       Br704   1.931       .  S
C709        C710   1.409       .  A
C709        C714   1.407       .  A
C710        C711   1.399       .  A
C710       Br722   1.926       .  S
C711        C712   1.406       .  A
C711       Br726   1.933       .  S
C712        C715   1.462       .  S
C712        C713   1.407       .  A
C713        C714   1.397       .  A
C713       Br721   1.931       .  S
C714       Br725   1.932       .  S
C715        C716   1.403       .  A
C715        C720   1.407       .  A
C716        C717   1.396       .  A
C716       Br727   1.936       .  S
C717        C718   1.413       .  A
C717       Br723   1.932       .  S
C718        C719   1.411       .  A
C719        C720   1.402       .  A
C719       Br728   1.932       .  S
C720       Br724   1.931       .  S
C729        C730   1.422       .  A
C729        C734   1.418       .  A
C730        C731   1.404       .  A
C730       Br742   1.934       .  S
C731        C732   1.404       .  A
C731       Br746   1.932       .  S
C732        C735   1.475       .  S
C732        C733   1.405       .  A
C733        C734   1.404       .  A
C733       Br741   1.930       .  S
C734       Br745   1.935       .  S
C735        C736   1.412       .  A
C735        C740   1.406       .  A
C736        C737   1.403       .  A
C736       Br747   1.932       .  S
C737        C738   1.403       .  A
C737       Br743   1.927       .  S
C738        C739   1.410       .  A
C739        C740   1.404       .  A
C739       Br748   1.923       .  S
C740       Br744   1.930       .  S
C749        C750   1.429       .  A
C749        C754   1.425       .  A
C750        C751   1.403       .  A
C750       Br762   1.940       .  S
C751        C752   1.401       .  A
C751       Br766   1.937       .  S
C752        C755   1.469       .  S
C752        C753   1.401       .  A
C753        C754   1.403       .  A
C753       Br761   1.934       .  S
C754       Br765   1.937       .  S
C755        C756   1.404       .  A
C755        C760   1.409       .  A
C756        C757   1.397       .  A
C756       Br767   1.933       .  S
C757        C758   1.408       .  A
C757       Br763   1.926       .  S
C758        C759   1.408       .  A
C759        C760   1.406       .  A
C759       Br768   1.929       .  S
C760       Br764   1.929       .  S
C769        C770   1.404       .  A
C769        C774   1.410       .  A
C770        C771   1.400       .  A
C770       Br782   1.928       .  S
C771        C772   1.409       .  A
C771       Br786   1.931       .  S
C772        C775   1.464       .  S
C772        C773   1.403       .  A
C773        C774   1.398       .  A
C773       Br781   1.932       .  S
C774       Br785   1.922       .  S
C775        C776   1.404       .  A
C775        C780   1.404       .  A
C776        C777   1.399       .  A
C776       Br787   1.936       .  S
C777        C778   1.419       .  A
C777       Br783   1.937       .  S
C778        C779   1.413       .  A
C779        C780   1.400       .  A
C779       Br788   1.934       .  S
C780       Br784   1.931       .  S
C789        C790   1.414       .  A
C789        C794   1.413       .  A
C790        C791   1.412       .  A
C790       Br802   1.929       .  S
C791        C792   1.410       .  A
C791       Br806   1.931       .  S
C792        C795   1.501       .  S
C792        C793   1.412       .  A
C793        C794   1.416       .  A
C793       Br801   1.928       .  S
C794       Br805   1.927       .  S
C795        C796   1.405       .  A
C795        C800   1.410       .  A
C796        C797   1.414       .  A
C796       Br807   1.933       .  S
C797        C798   1.429       .  A
C797       Br803   1.936       .  S
C798        C799   1.420       .  A
C799        C800   1.416       .  A
C799       Br808   1.932       .  S
C800       Br804   1.932       .  S
C809        C810   1.411       .  A
C809        C814   1.411       .  A
C810        C811   1.412       .  A
C810       Br822   1.927       .  S
C811        C812   1.412       .  A
C811       Br826   1.930       .  S
C812        C815   1.498       .  S
C812        C813   1.411       .  A
C813        C814   1.411       .  A
C813       Br821   1.930       .  S
C814       Br825   1.925       .  S
C815        C816   1.406       .  A
C815        C820   1.411       .  A
C816        C817   1.412       .  A
C816       Br827   1.932       .  S
C817        C818   1.424       .  A
C817       Br823   1.933       .  S
C818        C819   1.423       .  A
C819        C820   1.415       .  A
C819       Br828   1.935       .  S
C820       Br824   1.934       .  S
C829        C830   1.418       .  A
C829        C834   1.419       .  A
C830        C831   1.410       .  A
C830       Br842   1.931       .  S
C831        C832   1.409       .  A
C831       Br846   1.932       .  S
C832        C835   1.495       .  S
C832        C833   1.408       .  A
C833        C834   1.412       .  A
C833       Br841   1.930       .  S
C834       Br845   1.932       .  S
C835        C836   1.411       .  A
C835        C840   1.407       .  A
C836        C837   1.416       .  A
C836       Br847   1.929       .  S
C837        C838   1.414       .  A
C837       Br843   1.927       .  S
C838        C839   1.417       .  A
C839        C840   1.409       .  A
C839       Br848   1.932       .  S
C840       Br844   1.931       .  S
C849        C850   1.410       .  A
C849        C854   1.410       .  A
C850        C851   1.414       .  A
C850       Br862   1.927       .  S
C851        C852   1.415       .  A
C851       Br866   1.930       .  S
C852        C855   1.504       .  S
C852        C853   1.413       .  A
C853        C854   1.413       .  A
C853       Br861   1.928       .  S
C854       Br865   1.930       .  S
C855        C856   1.413       .  A
C855        C860   1.414       .  A
C856        C857   1.410       .  A
C856       Br867   1.930       .  S
C857        C858   1.409       .  A
C857       Br863   1.927       .  S
C858        C859   1.415       .  A
C859        C860   1.418       .  A
C859       Br868   1.929       .  S
C860       Br864   1.929       .  S
C869        C870   1.412       .  A
C869        C874   1.417   1_556  A
C870        C871   1.414       .  A
C870       Br882   1.929       .  S
C871        C872   1.413       .  A
C871       Br886   1.929       .  S
C872        C875   1.495       .  S
C872        C873   1.407   1_556  A
C873        C874   1.410       .  A
C873       Br881   1.930       .  S
C874       Br885   1.930       .  S
C875        C876   1.411       .  A
C875        C880   1.408   1_556  A
C876        C877   1.414       .  A
C876       Br887   1.928       .  S
C877        C878   1.410       .  A
C877       Br883   1.925       .  S
C878        C879   1.412       .  A
C879        C880   1.410   1_556  A
C879       Br888   1.924   1_556  S
C880       Br884   1.929       .  S
C889        C890   1.419   1_556  A
C889        C894   1.416       .  A
C890        C891   1.409       .  A
C890       Br902   1.930       .  S
C891        C892   1.406   1_554  A
C891       Br906   1.932       .  S
C892        C895   1.498       .  S
C892        C893   1.414       .  A
C893        C894   1.416       .  A
C893       Br901   1.928       .  S
C894       Br905   1.932       .  S
C895        C896   1.411   1_556  A
C895        C900   1.413       .  A
C896        C897   1.411       .  A
C896       Br907   1.931       .  S
C897        C898   1.413   1_554  A
C897       Br903   1.931       .  S
C898        C899   1.409       .  A
C899        C900   1.414       .  A
C899       Br908   1.927       .  S
C900       Br904   1.928       .  S
C909        C910   1.414       .  A
C909        C914   1.412   1_556  A
C910        C911   1.417       .  A
C910       Br922   1.932       .  S
C911        C912   1.416       .  A
C911       Br926   1.929       .  S
C912        C915   1.512       .  S
C912        C913   1.415   1_556  A
C913        C914   1.416       .  A
C913       Br921   1.930       .  S
C914       Br925   1.929       .  S
C915        C916   1.412   1_556  A
C915        C920   1.418       .  A
C916        C917   1.408   1_554  A
C916       Br927   1.933       .  S
C917        C918   1.417       .  A
C917       Br923   1.935   1_556  S
C918        C919   1.416       .  A
C919        C920   1.424       .  A
C919       Br928   1.926       .  S
C920       Br924   1.928       .  S
C929        C930   1.426       .  A
C929        C934   1.435       .  A
C930        C931   1.418       .  A
C930       Br942   1.933   1_556  S
C931        C932   1.411       .  A
C931       Br946   1.933   1_556  S
C932        C935   1.502       .  S
C932        C933   1.403       .  A
C933        C934   1.413       .  A
C933       Br941   1.933       .  S
C934       Br945   1.941       .  S
C935        C936   1.409   1_556  A
C935        C940   1.413       .  A
C936        C937   1.412       .  A
C936       Br947   1.931       .  S
C937        C938   1.415       .  A
C937       Br943   1.928       .  S
C938        C939   1.413   1_554  A
C939        C940   1.417       .  A
C939       Br948   1.926       .  S
C940       Br944   1.927       .  S
C949        C950   1.401       .  A
C949        C954   1.410       .  A
C950        C951   1.405       .  A
C950       Br962   1.927       .  S
C951        C952   1.412       .  A
C951       Br966   1.926       .  S
C952        C955   1.469       .  S
C952        C953   1.400       .  A
C953        C954   1.398       .  A
C953       Br961   1.934       .  S
C954       Br965   1.910       .  S
C955        C956   1.408       .  A
C955        C960   1.404       .  A
C956        C957   1.404       .  A
C956       Br967   1.929       .  S
C957        C958   1.414       .  A
C957       Br963   1.932       .  S
C958        C959   1.413       .  A
C959        C960   1.400       .  A
C959       Br968   1.930       .  S
C960       Br964   1.930       .  S
C969        C970   1.421       .  A
C969        C974   1.417       .  A
C970        C971   1.403       .  A
C970       Br982   1.927       .  S
C971        C972   1.401       .  A
C971       Br986   1.935       .  S
C972        C975   1.473       .  S
C972        C973   1.406       .  A
C973        C974   1.405       .  A
C973       Br981   1.932       .  S
C974       Br985   1.934       .  S
C975        C976   1.405       .  A
C975        C980   1.406       .  A
C976        C977   1.404       .  A
C976       Br987   1.930       .  S
C977        C978   1.414       .  A
C977       Br983   1.932       .  S
C978        C979   1.417       .  A
C979        C980   1.402       .  A
C979       Br988   1.935       .  S
C980       Br984   1.934       .  S
C989        C990   1.414       .  A
C989        C994   1.410       .  A
C990        C991   1.403       .  A
C990      Br1002   1.932       .  S
C991        C992   1.405       .  A
C991      Br1006   1.931       .  S
C992        C995   1.466       .  S
C992        C993   1.407       .  A
C993        C994   1.400       .  A
C993      Br1001   1.934       .  S
C994      Br1005   1.932       .  S
C995        C996   1.406       .  A
C995       C1000   1.406       .  A
C996        C997   1.399       .  A
C996      Br1007   1.933       .  S
C997        C998   1.408       .  A
C997      Br1003   1.927       .  S
C998        C999   1.411       .  A
C999       C1000   1.402       .  A
C999      Br1008   1.933       .  S
C1000     Br1004   1.930       .  S
C1009      C1010   1.403       .  A
C1009      C1014   1.412       .  A
C1010      C1011   1.405       .  A
C1010     Br1022   1.929       .  S
C1011      C1012   1.412       .  A
C1011     Br1026   1.928       .  S
C1012      C1015   1.477       .  S
C1012      C1013   1.403       .  A
C1013      C1014   1.404       .  A
C1013     Br1021   1.929       .  S
C1014     Br1025   1.918       .  S
C1015      C1016   1.407       .  A
C1015      C1020   1.403       .  A
C1016      C1017   1.404       .  A
C1016     Br1027   1.930       .  S
C1017      C1018   1.414       .  A
C1017     Br1023   1.930       .  S
C1018      C1019   1.420       .  A
C1019      C1020   1.407       .  A
C1019     Br1028   1.929       .  S
C1020     Br1024   1.927       .  S
C1029      C1030   1.416   1_545  A
C1029      C1034   1.427       .  A
C1030      C1031   1.410       .  A
C1030     Br1042   1.933       .  S
C1031      C1032   1.409   1_565  A
C1031     Br1046   1.931       .  S
C1032      C1035   1.482       .  S
C1032      C1033   1.399       .  A
C1033      C1034   1.406       .  A
C1033     Br1041   1.936       .  S
C1034     Br1045   1.923       .  S
C1035      C1036   1.408   1_545  A
C1035      C1040   1.408       .  A
C1036      C1037   1.405       .  A
C1036     Br1047   1.929       .  S
C1037      C1038   1.408   1_565  A
C1037     Br1043   1.928       .  S
C1038      C1039   1.409       .  A
C1039      C1040   1.407       .  A
C1039     Br1048   1.927       .  S
C1040     Br1044   1.928       .  S
C1049      C1050   1.418       .  A
C1049      C1054   1.428       .  A
C1050      C1051   1.415       .  A
C1050     Br1062   1.931   1_545  S
C1051      C1052   1.412       .  A
C1051     Br1066   1.932   1_545  S
C1052      C1055   1.498       .  S
C1052      C1053   1.405       .  A
C1053      C1054   1.413       .  A
C1053     Br1061   1.932       .  S
C1054     Br1065   1.934       .  S
C1055      C1056   1.411   1_545  A
C1055      C1060   1.409       .  A
C1056      C1057   1.413       .  A
C1056     Br1067   1.927       .  S
C1057      C1058   1.411   1_565  A
C1057     Br1063   1.929       .  S
C1058      C1059   1.413       .  A
C1059      C1060   1.412       .  A
C1059     Br1068   1.928       .  S
C1060     Br1064   1.930       .  S
C1069      C1070   1.417       .  A
C1069      C1074   1.411   1_565  A
C1070      C1071   1.413       .  A
C1070     Br1082   1.934       .  S
C1071      C1072   1.411       .  A
C1071     Br1086   1.931       .  S
C1072      C1075   1.506       .  S
C1072      C1073   1.414   1_565  A
C1073      C1074   1.417       .  A
C1073     Br1081   1.927       .  S
C1074     Br1085   1.928       .  S
C1075      C1076   1.407       .  A
C1075      C1080   1.414   1_565  A
C1076      C1077   1.413       .  A
C1076     Br1087   1.932       .  S
C1077      C1078   1.425       .  A
C1077     Br1083   1.934       .  S
C1078      C1079   1.421   1_565  A
C1079      C1080   1.421       .  A
C1079     Br1088   1.929       .  S
C1080     Br1084   1.931       .  S
C1089      C1090   1.412       .  A
C1089      C1094   1.411       .  A
C1090      C1091   1.418       .  A
C1090     Br1102   1.927       .  S
C1091      C1092   1.415       .  A
C1091     Br1106   1.928       .  S
C1092      C1095   1.502       .  S
C1092      C1093   1.410       .  A
C1093      C1094   1.410       .  A
C1093     Br1101   1.932       .  S
C1094     Br1105   1.922       .  S
C1095      C1096   1.415       .  A
C1095      C1100   1.410       .  A
C1096      C1097   1.418       .  A
C1096     Br1107   1.928       .  S
C1097      C1098   1.413       .  A
C1097     Br1103   1.927       .  S
C1098      C1099   1.416       .  A
C1099      C1100   1.410       .  A
C1099     Br1108   1.932       .  S
C1100     Br1104   1.931       .  S
C1109      C1110   1.421       .  A
C1109      C1114   1.417       .  A
C1110      C1111   1.416       .  A
C1110     Br1122   1.931       .  S
C1111      C1112   1.409       .  A
C1111     Br1126   1.930       .  S
C1112      C1115   1.502       .  S
C1112      C1113   1.411       .  A
C1113      C1114   1.413       .  A
C1113     Br1121   1.933       .  S
C1114     Br1125   1.929       .  S
C1115      C1116   1.412       .  A
C1115      C1120   1.414       .  A
C1116      C1117   1.412       .  A
C1116     Br1127   1.928       .  S
C1117      C1118   1.411       .  A
C1117     Br1123   1.931       .  S
C1118      C1119   1.408       .  A
C1119      C1120   1.414       .  A
C1119     Br1128   1.925       .  S
C1120     Br1124   1.928       .  S
C1129      C1130   1.413       .  A
C1129      C1134   1.410       .  A
C1130      C1131   1.412       .  A
C1130     Br1142   1.926       .  S
C1131      C1132   1.410       .  A
C1131     Br1146   1.930       .  S
C1132      C1135   1.500       .  S
C1132      C1133   1.412       .  A
C1133      C1134   1.415       .  A
C1133     Br1141   1.927       .  S
C1134     Br1145   1.927       .  S
C1135      C1136   1.407       .  A
C1135      C1140   1.413       .  A
C1136      C1137   1.411       .  A
C1136     Br1147   1.931       .  S
C1137      C1138   1.417       .  A
C1137     Br1143   1.924       .  S
C1138      C1139   1.414       .  A
C1139      C1140   1.417       .  A
C1139     Br1148   1.929       .  S
C1140     Br1144   1.929       .  S
C1149      C1150   1.421       .  A
C1149      C1154   1.423       .  A
C1150      C1151   1.415       .  A
C1150     Br1162   1.931       .  S
C1151      C1152   1.410       .  A
C1151     Br1166   1.932       .  S
C1152      C1155   1.498       .  S
C1152      C1153   1.406       .  A
C1153      C1154   1.413       .  A
C1153     Br1161   1.931       .  S
C1154     Br1165   1.933       .  S
C1155      C1156   1.411       .  A
C1155      C1160   1.412       .  A
C1156      C1157   1.411       .  A
C1156     Br1167   1.929       .  S
C1157      C1158   1.410       .  A
C1157     Br1163   1.929       .  S
C1158      C1159   1.411       .  A
C1159      C1160   1.413       .  A
C1159     Br1168   1.927       .  S
C1160     Br1164   1.928       .  S
C1169      C1170   1.413       .  A
C1169      C1174   1.413       .  A
C1170      C1171   1.403       .  A
C1170     Br1182   1.930       .  S
C1171      C1172   1.403       .  A
C1171     Br1186   1.929       .  S
C1172      C1175   1.462       .  S
C1172      C1173   1.405       .  A
C1173      C1174   1.395       .  A
C1173     Br1181   1.935       .  S
C1174     Br1185   1.937   1_565  S
C1175      C1176   1.401       .  A
C1175      C1180   1.408       .  A
C1176      C1177   1.397       .  A
C1176     Br1187   1.932       .  S
C1177      C1178   1.413       .  A
C1177     Br1183   1.926       .  S
C1178      C1179   1.408       .  A
C1179      C1180   1.401       .  A
C1179     Br1188   1.932   1_565  S
C1180     Br1184   1.931   1_565  S
C1189      C1190   1.408       .  A
C1189      C1194   1.405       .  A
C1190      C1191   1.390       .  A
C1190     Br1202   1.923       .  S
C1191      C1192   1.400       .  A
C1191     Br1206   1.934       .  S
C1192      C1195   1.452       .  S
C1192      C1193   1.408       .  A
C1193      C1194   1.400       .  A
C1193     Br1201   1.929   1_565  S
C1194     Br1205   1.930   1_565  S
C1195      C1196   1.401       .  A
C1195      C1200   1.404       .  A
C1196      C1197   1.398       .  A
C1196     Br1207   1.931       .  S
C1197      C1198   1.412       .  A
C1197     Br1203   1.931       .  S
C1198      C1199   1.415       .  A
C1199      C1200   1.394       .  A
C1199     Br1208   1.938   1_565  S
C1200     Br1204   1.937   1_565  S
C1209      C1210   1.410       .  A
C1209      C1214   1.411       .  A
C1210      C1211   1.397       .  A
C1210     Br1222   1.931       .  S
C1211      C1212   1.404       .  A
C1211     Br1226   1.932       .  S
C1212      C1215   1.458       .  S
C1212      C1213   1.404       .  A
C1213      C1214   1.398       .  A
C1213     Br1221   1.931   1_565  S
C1214     Br1225   1.932   1_565  S
C1215      C1216   1.405       .  A
C1215      C1220   1.407   1_565  A
C1216      C1217   1.398       .  A
C1216     Br1227   1.930       .  S
C1217      C1218   1.408       .  A
C1217     Br1223   1.932       .  S
C1218      C1219   1.406   1_565  A
C1219      C1220   1.395       .  A
C1219     Br1228   1.935       .  S
C1220     Br1224   1.932       .  S
C1229      C1230   1.421       .  A
C1229      C1234   1.431       .  A
C1230      C1231   1.420       .  A
C1230     Br1242   1.930       .  S
C1231      C1232   1.412       .  A
C1231     Br1246   1.928       .  S
C1232      C1235   1.500       .  S
C1232      C1233   1.401       .  A
C1233      C1234   1.410       .  A
C1233     Br1241   1.936   1_545  S
C1234     Br1245   1.932   1_545  S
C1235      C1236   1.413       .  A
C1235      C1240   1.409   1_545  A
C1236      C1237   1.416       .  A
C1236     Br1247   1.926       .  S
C1237      C1238   1.411       .  A
C1237     Br1243   1.927       .  S
C1238      C1239   1.415   1_545  A
C1239      C1240   1.410       .  A
C1239     Br1248   1.931       .  S
C1240     Br1244   1.932       .  S
C1249      C1250   1.413   1_545  A
C1249      C1254   1.406       .  A
C1250      C1251   1.394       .  A
C1250     Br1262   1.932       .  S
C1251      C1252   1.402       .  A
C1251     Br1266   1.935       .  S
C1252      C1255   1.456       .  S
C1252      C1253   1.408   1_565  A
C1253      C1254   1.397       .  A
C1253     Br1261   1.931       .  S
C1254     Br1265   1.933       .  S
C1255      C1256   1.406       .  A
C1255      C1260   1.404   1_565  A
C1256      C1257   1.394       .  A
C1256     Br1267   1.934       .  S
C1257      C1258   1.409       .  A
C1257     Br1263   1.935       .  S
C1258      C1259   1.410   1_565  A
C1259      C1260   1.397       .  A
C1259     Br1268   1.930       .  S
C1260     Br1264   1.933       .  S
C1269      C1270   1.410       .  A
C1269      C1274   1.412       .  A
C1270      C1271   1.413       .  A
C1270     Br1282   1.925       .  S
C1271      C1272   1.412       .  A
C1271     Br1286   1.929       .  S
C1272      C1275   1.491       .  S
C1272      C1273   1.409       .  A
C1273      C1274   1.407       .  A
C1273     Br1281   1.931       .  S
C1274     Br1285   1.930       .  S
C1275      C1276   1.411       .  A
C1275      C1280   1.406       .  A
C1276      C1277   1.410       .  A
C1276     Br1287   1.932       .  S
C1277      C1278   1.414       .  A
C1277     Br1283   1.931       .  S
C1278      C1279   1.421       .  A
C1279      C1280   1.409       .  A
C1279     Br1288   1.935       .  S
C1280     Br1284   1.931       .  S
C1289      C1290   1.413       .  A
C1289      C1294   1.411       .  A
C1290      C1291   1.409       .  A
C1290     Br1302   1.931       .  S
C1291      C1292   1.409       .  A
C1291     Br1306   1.930       .  S
C1292      C1295   1.499       .  S
C1292      C1293   1.413       .  A
C1293      C1294   1.417       .  A
C1293     Br1301   1.928       .  S
C1294     Br1305   1.925       .  S
C1295      C1296   1.405       .  A
C1295      C1300   1.412       .  A
C1296      C1297   1.411       .  A
C1296     Br1307   1.932       .  S
C1297      C1298   1.426       .  A
C1297     Br1303   1.936       .  S
C1298      C1299   1.418       .  A
C1299      C1300   1.417       .  A
C1299     Br1308   1.930       .  S
C1300     Br1304   1.930       .  S
C1309      C1310   1.416       .  A
C1309      C1314   1.417       .  A
C1310      C1311   1.419       .  A
C1310     Br1322   1.928       .  S
C1311      C1312   1.416       .  A
C1311     Br1326   1.927       .  S
C1312      C1315   1.507       .  S
C1312      C1313   1.411       .  A
C1313      C1314   1.408       .  A
C1313     Br1321   1.934       .  S
C1314     Br1325   1.935       .  S
C1315      C1316   1.410       .  A
C1315      C1320   1.406       .  A
C1316      C1317   1.419       .  A
C1316     Br1327   1.933       .  S
C1317      C1318   1.429       .  A
C1317     Br1323   1.935       .  S
C1318      C1319   1.436       .  A
C1319      C1320   1.416       .  A
C1319     Br1328   1.940       .  S
C1320     Br1324   1.938       .  S
C1329      C1330   1.415       .  A
C1329      C1334   1.412       .  A
C1330      C1331   1.417       .  A
C1330     Br1342   1.931       .  S
C1331      C1332   1.415       .  A
C1331     Br1346   1.929       .  S
C1332      C1335   1.504       .  S
C1332      C1333   1.413       .  A
C1333      C1334   1.410       .  A
C1333     Br1341   1.931       .  S
C1334     Br1345   1.932       .  S
C1335      C1336   1.415       .  A
C1335      C1340   1.410       .  A
C1336      C1337   1.419       .  A
C1336     Br1347   1.928       .  S
C1337      C1338   1.412       .  A
C1337     Br1343   1.926       .  S
C1338      C1339   1.417       .  A
C1339      C1340   1.411       .  A
C1339     Br1348   1.932       .  S
C1340     Br1344   1.932       .  S
C1349      C1350   1.413   1_565  A
C1349      C1354   1.418       .  A
C1350      C1351   1.419       .  A
C1350     Br1362   1.927       .  S
C1351      C1352   1.417   1_545  A
C1351     Br1366   1.929       .  S
C1352      C1355   1.509       .  S
C1352      C1353   1.411       .  A
C1353      C1354   1.411       .  A
C1353     Br1361   1.934       .  S
C1354     Br1365   1.924       .  S
C1355      C1356   1.418   1_565  A
C1355      C1360   1.412       .  A
C1356      C1357   1.418       .  A
C1356     Br1367   1.929       .  S
C1357      C1358   1.412   1_545  A
C1357     Br1363   1.927       .  S
C1358      C1359   1.414       .  A
C1359      C1360   1.409       .  A
C1359     Br1368   1.933       .  S
C1360     Br1364   1.932       .  S
C1369      C1370   1.420       .  A
C1369      C1374   1.431       .  A
C1370      C1371   1.414       .  A
C1370     Br1382   1.933   1_545  S
C1371      C1372   1.410       .  A
C1371     Br1386   1.930   1_545  S
C1372      C1375   1.498       .  S
C1372      C1373   1.404       .  A
C1373      C1374   1.412       .  A
C1373     Br1381   1.934       .  S
C1374     Br1385   1.937       .  S
C1375      C1376   1.412   1_545  A
C1375      C1380   1.411       .  A
C1376      C1377   1.413       .  A
C1376     Br1387   1.928       .  S
C1377      C1378   1.409   1_565  A
C1377     Br1383   1.926       .  S
C1378      C1379   1.411       .  A
C1379      C1380   1.412       .  A
C1379     Br1388   1.926       .  S
C1380     Br1384   1.930       .  S
C1389      C1390   1.410   1_545  A
C1389      C1394   1.411       .  A
C1390      C1391   1.405       .  A
C1390     Br1402   1.930       .  S
C1391      C1392   1.408   1_565  A
C1391     Br1406   1.931       .  S
C1392      C1395   1.482       .  S
C1392      C1393   1.408       .  A
C1393      C1394   1.408       .  A
C1393     Br1401   1.929       .  S
C1394     Br1405   1.928       .  S
C1395      C1396   1.399       .  A
C1395      C1400   1.408       .  A
C1396      C1397   1.403       .  A
C1396     Br1407   1.934       .  S
C1397      C1398   1.424       .  A
C1397     Br1403   1.929       .  S
C1398      C1399   1.422       .  A
C1399      C1400   1.412       .  A
C1399     Br1408   1.933       .  S
C1400     Br1404   1.931       .  S
C1409      C1410   1.411   1_545  A
C1409      C1414   1.412       .  A
C1410      C1411   1.413       .  A
C1410     Br1422   1.931       .  S
C1411      C1412   1.413   1_565  A
C1411     Br1426   1.928       .  S
C1412      C1415   1.503       .  S
C1412      C1413   1.412       .  A
C1413      C1414   1.413       .  A
C1413     Br1421   1.929       .  S
C1414     Br1425   1.928       .  S
C1415      C1416   1.410       .  A
C1415      C1420   1.404   1_545  A
C1416      C1417   1.417       .  A
C1416     Br1427   1.935       .  S
C1417      C1418   1.427   1_545  A
C1417     Br1423   1.935       .  S
C1418      C1419   1.434       .  A
C1419      C1420   1.416       .  A
C1419     Br1428   1.939       .  S
C1420     Br1424   1.934       .  S
C1429      C1430   1.408       .  A
C1429      C1434   1.410       .  A
C1430      C1431   1.403       .  A
C1430     Br1442   1.925       .  S
C1431      C1432   1.409       .  A
C1431     Br1446   1.930       .  S
C1432      C1435   1.477       .  S
C1432      C1433   1.409       .  A
C1433      C1434   1.403       .  A
C1433     Br1441   1.932       .  S
C1434     Br1445   1.932       .  S
C1435      C1436   1.411       .  A
C1435      C1440   1.410       .  A
C1436      C1437   1.403       .  A
C1436     Br1447   1.933       .  S
C1437      C1438   1.407       .  A
C1437     Br1443   1.931       .  S
C1438      C1439   1.408       .  A
C1439      C1440   1.404       .  A
C1439     Br1448   1.932       .  S
C1440     Br1444   1.931       .  S
C1449      C1450   1.409       .  A
C1449      C1454   1.411       .  A
C1450      C1451   1.400       .  A
C1450     Br1462   1.932       .  S
C1451      C1452   1.408       .  A
C1451     Br1466   1.933       .  S
C1452      C1455   1.476       .  S
C1452      C1453   1.409       .  A
C1453      C1454   1.406       .  A
C1453     Br1461   1.929       .  S
C1454     Br1465   1.932       .  S
C1455      C1456   1.403       .  A
C1455      C1460   1.406       .  A
C1456      C1457   1.404       .  A
C1456     Br1467   1.934       .  S
C1457      C1458   1.422       .  A
C1457     Br1463   1.936       .  S
C1458      C1459   1.417       .  A
C1459      C1460   1.406       .  A
C1459     Br1468   1.931       .  S
C1460     Br1464   1.932       .  S
C1469      C1470   1.418       .  A
C1469      C1474   1.413       .  A
C1470      C1471   1.400       .  A
C1470     Br1482   1.931       .  S
C1471      C1472   1.404       .  A
C1471     Br1486   1.933       .  S
C1472      C1475   1.468       .  S
C1472      C1473   1.405       .  A
C1473      C1474   1.403       .  A
C1473     Br1481   1.927       .  S
C1474     Br1485   1.929       .  S
C1475      C1476   1.411       .  A
C1475      C1480   1.402       .  A
C1476      C1477   1.402       .  A
C1476     Br1487   1.927       .  S
C1477      C1478   1.404       .  A
C1477     Br1483   1.931       .  S
C1478      C1479   1.410       .  A
C1479      C1480   1.400       .  A
C1479     Br1488   1.923       .  S
C1480     Br1484   1.929       .  S
C1489      C1490   1.409       .  A
C1489      C1494   1.403       .  A
C1490      C1491   1.399       .  A
C1490     Br1502   1.914       .  S
C1491      C1492   1.400       .  A
C1491     Br1506   1.931       .  S
C1492      C1495   1.472       .  S
C1492      C1493   1.414       .  A
C1493      C1494   1.407       .  A
C1493     Br1501   1.929       .  S
C1494     Br1505   1.926       .  S
C1495      C1496   1.405       .  A
C1495      C1500   1.407       .  A
C1496      C1497   1.405       .  A
C1496     Br1507   1.927       .  S
C1497      C1498   1.416       .  A
C1497     Br1503   1.929       .  S
C1498      C1499   1.411       .  A
C1499      C1500   1.401       .  A
C1499     Br1508   1.929       .  S
C1500     Br1504   1.929       .  S
C1509      C1510   1.411       .  A
C1509      C1514   1.411   1_655  A
C1510      C1511   1.412       .  A
C1510     Br1522   1.931       .  S
C1511      C1512   1.413       .  A
C1511     Br1526   1.930       .  S
C1512      C1515   1.498       .  S
C1512      C1513   1.411   1_655  A
C1513      C1514   1.412       .  A
C1513     Br1521   1.930       .  S
C1514     Br1525   1.927       .  S
C1515      C1516   1.415   1_655  A
C1515      C1520   1.404       .  A
C1516      C1517   1.417       .  A
C1516     Br1527   1.930       .  S
C1517      C1518   1.416   1_455  A
C1517     Br1523   1.929       .  S
C1518      C1519   1.423       .  A
C1519      C1520   1.408       .  A
C1519     Br1528   1.927       .  S
C1520     Br1524   1.933       .  S
C1529      C1530   1.412   1_655  A
C1529      C1534   1.414       .  A
C1530      C1531   1.418       .  A
C1530     Br1542   1.927       .  S
C1531      C1532   1.415   1_455  A
C1531     Br1546   1.929       .  S
C1532      C1535   1.509       .  S
C1532      C1533   1.413       .  A
C1533      C1534   1.416       .  A
C1533     Br1541   1.927       .  S
C1534     Br1545   1.929       .  S
C1535      C1536   1.414   1_655  A
C1535      C1540   1.410       .  A
C1536      C1537   1.420       .  A
C1536     Br1547   1.927       .  S
C1537      C1538   1.414   1_455  A
C1537     Br1543   1.927       .  S
C1538      C1539   1.418       .  A
C1539      C1540   1.414       .  A
C1539     Br1548   1.933       .  S
C1540     Br1544   1.929       .  S
C1549      C1550   1.412       .  A
C1549      C1554   1.413   1_455  A
C1550      C1551   1.415       .  A
C1550     Br1562   1.929       .  S
C1551      C1552   1.412       .  A
C1551     Br1566   1.928       .  S
C1552      C1555   1.502       .  S
C1552      C1553   1.410   1_455  A
C1553      C1554   1.413       .  A
C1553     Br1561   1.929       .  S
C1554     Br1565   1.925       .  S
C1555      C1556   1.407   1_455  A
C1555      C1560   1.413       .  A
C1556      C1557   1.412       .  A
C1556     Br1567   1.931       .  S
C1557      C1558   1.421       .  A
C1557     Br1563   1.928       .  S
C1558      C1559   1.414   1_655  A
C1559      C1560   1.417       .  A
C1559     Br1568   1.925       .  S
C1560     Br1564   1.928       .  S
C1569      C1570   1.412       .  A
C1569      C1574   1.412   1_455  A
C1570      C1571   1.412       .  A
C1570     Br1582   1.929       .  S
C1571      C1572   1.410   1_455  A
C1571     Br1586   1.927       .  S
C1572      C1575   1.499       .  S
C1572      C1573   1.410       .  A
C1573      C1574   1.413       .  A
C1573     Br1581   1.928       .  S
C1574     Br1585   1.923       .  S
C1575      C1576   1.412   1_655  A
C1575      C1580   1.405       .  A
C1576      C1577   1.417   1_455  A
C1576     Br1587   1.930       .  S
C1577      C1578   1.418       .  A
C1577     Br1583   1.929   1_655  S
C1578      C1579   1.424       .  A
C1579      C1580   1.410       .  A
C1579     Br1588   1.934       .  S
C1580     Br1584   1.930       .  S
C1589      C1590   1.409   1_455  A
C1589      C1594   1.411       .  A
C1590      C1591   1.412       .  A
C1590     Br1602   1.927       .  S
C1591      C1592   1.412   1_655  A
C1591     Br1606   1.927       .  S
C1592      C1595   1.496       .  S
C1592      C1593   1.410       .  A
C1593      C1594   1.409       .  A
C1593     Br1601   1.931       .  S
C1594     Br1605   1.929       .  S
C1595      C1596   1.404       .  A
C1595      C1600   1.412   1_455  A
C1596      C1597   1.411       .  A
C1596     Br1607   1.935       .  S
C1597      C1598   1.429       .  A
C1597     Br1603   1.935       .  S
C1598      C1599   1.417   1_455  A
C1599      C1600   1.415       .  A
C1599     Br1608   1.932       .  S
C1600     Br1604   1.930       .  S
C1609      C1610   1.416       .  A
C1609      C1614   1.413   1_455  A
C1610      C1611   1.406       .  A
C1610     Br1622   1.923       .  S
C1611      C1612   1.406       .  A
C1611     Br1626   1.931       .  S
C1612      C1615   1.489       .  S
C1612      C1613   1.412   1_455  A
C1613      C1614   1.410       .  A
C1613     Br1621   1.930       .  S
C1614     Br1625   1.932       .  S
C1615      C1616   1.410       .  A
C1615      C1620   1.410   1_455  A
C1616      C1617   1.407       .  A
C1616     Br1627   1.933       .  S
C1617      C1618   1.414       .  A
C1617     Br1623   1.932       .  S
C1618      C1619   1.411   1_455  A
C1619      C1620   1.412       .  A
C1619     Br1628   1.926       .  S
C1620     Br1624   1.930       .  S
C1629      C1630   1.411       .  A
C1629      C1634   1.415       .  A
C1630      C1631   1.414       .  A
C1630     Br1642   1.928       .  S
C1631      C1632   1.413       .  A
C1631     Br1646   1.928       .  S
C1632      C1635   1.498       .  S
C1632      C1633   1.410       .  A
C1633      C1634   1.410       .  A
C1633     Br1641   1.931       .  S
C1634     Br1645   1.932       .  S
C1635      C1636   1.411       .  A
C1635      C1640   1.408       .  A
C1636      C1637   1.413       .  A
C1636     Br1647   1.929       .  S
C1637      C1638   1.415       .  A
C1637     Br1643   1.929       .  S
C1638      C1639   1.420       .  A
C1639      C1640   1.412       .  A
C1639     Br1648   1.926       .  S
C1640     Br1644   1.932       .  S
C1649      C1650   1.409       .  A
C1649      C1654   1.413       .  A
C1650      C1651   1.414       .  A
C1650     Br1662   1.926       .  S
C1651      C1652   1.412       .  A
C1651     Br1666   1.928       .  S
C1652      C1655   1.496       .  S
C1652      C1653   1.408       .  A
C1653      C1654   1.411       .  A
C1653     Br1661   1.929       .  S
C1654     Br1665   1.925       .  S
C1655      C1656   1.412       .  A
C1655      C1660   1.408       .  A
C1656      C1657   1.412       .  A
C1656     Br1667   1.930       .  S
C1657      C1658   1.413       .  A
C1657     Br1663   1.932       .  S
C1658      C1659   1.417       .  A
C1659      C1660   1.412       .  A
C1659     Br1668   1.929       .  S
C1660     Br1664   1.929       .  S
C1669      C1670   1.412       .  A
C1669      C1674   1.412       .  A
C1670      C1671   1.415       .  A
C1670     Br1682   1.927       .  S
C1671      C1672   1.412       .  A
C1671     Br1686   1.928       .  S
C1672      C1675   1.503       .  S
C1672      C1673   1.411       .  A
C1673      C1674   1.413       .  A
C1673     Br1681   1.929       .  S
C1674     Br1685   1.929       .  S
C1675      C1676   1.405       .  A
C1675      C1680   1.410       .  A
C1676      C1677   1.414       .  A
C1676     Br1687   1.929       .  S
C1677      C1678   1.423       .  A
C1677     Br1683   1.922       .  S
C1678      C1679   1.422       .  A
C1679      C1680   1.418       .  A
C1679     Br1688   1.928       .  S
C1680     Br1684   1.931       .  S
C1689      C1690   1.421       .  A
C1689      C1694   1.415       .  A
C1690      C1691   1.410       .  A
C1690     Br1702   1.927       .  S
C1691      C1692   1.405       .  A
C1691     Br1706   1.932       .  S
C1692      C1695   1.495       .  S
C1692      C1693   1.413       .  A
C1693      C1694   1.414       .  A
C1693     Br1701   1.931       .  S
C1694     Br1705   1.932       .  S
C1695      C1696   1.408       .  A
C1695      C1700   1.412       .  A
C1696      C1697   1.407       .  A
C1696     Br1707   1.931       .  S
C1697      C1698   1.414       .  A
C1697     Br1703   1.932       .  S
C1698      C1699   1.412       .  A
C1699      C1700   1.416       .  A
C1699     Br1708   1.925       .  S
C1700     Br1704   1.928       .  S
C1709      C1710   1.423       .  A
C1709      C1714   1.415       .  A
C1710      C1711   1.407       .  A
C1710     Br1722   1.935       .  S
C1711      C1712   1.404       .  A
C1711     Br1726   1.932       .  S
C1712      C1715   1.490       .  S
C1712      C1713   1.411       .  A
C1713      C1714   1.411       .  A
C1713     Br1721   1.928       .  S
C1714     Br1725   1.933       .  S
C1715      C1716   1.407       .  A
C1715      C1720   1.411       .  A
C1716      C1717   1.407       .  A
C1716     Br1727   1.931       .  S
C1717      C1718   1.413       .  A
C1717     Br1723   1.930       .  S
C1718      C1719   1.408       .  A
C1719      C1720   1.412       .  A
C1719     Br1728   1.926       .  S
C1720     Br1724   1.924       .  S
C1729      C1730   1.418       .  A
C1729      C1734   1.425       .  A
C1730      C1731   1.418       .  A
C1730     Br1742   1.932       .  S
C1731      C1732   1.416       .  A
C1731     Br1746   1.929       .  S
C1732      C1735   1.510       .  S
C1732      C1733   1.411       .  A
C1733      C1734   1.413       .  A
C1733     Br1741   1.935       .  S
C1734     Br1745   1.936       .  S
C1735      C1736   1.418       .  A
C1735      C1740   1.414       .  A
C1736      C1737   1.420       .  A
C1736     Br1747   1.929       .  S
C1737      C1738   1.413       .  A
C1737     Br1743   1.928       .  S
C1738      C1739   1.413       .  A
C1739      C1740   1.410       .  A
C1739     Br1748   1.932       .  S
C1740     Br1744   1.933       .  S
C1749      C1750   1.430       .  A
C1749      C1754   1.418       .  A
C1750      C1751   1.408       .  A
C1750     Br1762   1.940       .  S
C1751      C1752   1.403       .  A
C1751     Br1766   1.935       .  S
C1752      C1755   1.490       .  S
C1752      C1753   1.411       .  A
C1753      C1754   1.412       .  A
C1753     Br1761   1.931       .  S
C1754     Br1765   1.934       .  S
C1755      C1756   1.411       .  A
C1755      C1760   1.410       .  A
C1756      C1757   1.411       .  A
C1756     Br1767   1.930       .  S
C1757      C1758   1.411       .  A
C1757     Br1763   1.927       .  S
C1758      C1759   1.410       .  A
C1759      C1760   1.408       .  A
C1759     Br1768   1.929       .  S
C1760     Br1764   1.930       .  S
C1769      C1770   1.429       .  A
C1769      C1774   1.417       .  A
C1770      C1771   1.407       .  A
C1770     Br1782   1.933       .  S
C1771      C1772   1.404       .  A
C1771     Br1786   1.935       .  S
C1772      C1775   1.498       .  S
C1772      C1773   1.414       .  A
C1773      C1774   1.417       .  A
C1773     Br1781   1.930       .  S
C1774     Br1785   1.929       .  S
C1775      C1776   1.413       .  A
C1775      C1780   1.413       .  A
C1776      C1777   1.411       .  A
C1776     Br1787   1.932       .  S
C1777      C1778   1.411       .  A
C1777     Br1783   1.929       .  S
C1778      C1779   1.410       .  A
C1779      C1780   1.412       .  A
C1779     Br1788   1.929       .  S
C1780     Br1784   1.929       .  S
C1789      C1790   1.417       .  A
C1789      C1794   1.408       .  A
C1790      C1791   1.400       .  A
C1790     Br1802   1.932   1_455  S
C1791      C1792   1.404       .  A
C1791     Br1806   1.936   1_455  S
C1792      C1795   1.474       .  S
C1792      C1793   1.409       .  A
C1793      C1794   1.405       .  A
C1793     Br1801   1.928       .  S
C1794     Br1805   1.930       .  S
C1795      C1796   1.412   1_455  A
C1795      C1800   1.404       .  A
C1796      C1797   1.403       .  A
C1796     Br1807   1.931       .  S
C1797      C1798   1.405   1_655  A
C1797     Br1803   1.931       .  S
C1798      C1799   1.411       .  A
C1799      C1800   1.402       .  A
C1799     Br1808   1.920       .  S
C1800     Br1804   1.932       .  S
C1809      C1810   1.412       .  A
C1809      C1814   1.414       .  A
C1810      C1811   1.403       .  A
C1810     Br1822   1.929       .  S
C1811      C1812   1.407       .  A
C1811     Br1826   1.929       .  S
C1812      C1815   1.466       .  S
C1812      C1813   1.405       .  A
C1813      C1814   1.400       .  A
C1813     Br1821   1.931       .  S
C1814     Br1825   1.931       .  S
C1815      C1816   1.400       .  A
C1815      C1820   1.412       .  A
C1816      C1817   1.396       .  A
C1816     Br1827   1.934       .  S
C1817      C1818   1.410       .  A
C1817     Br1823   1.915       .  S
C1818      C1819   1.403       .  A
C1819      C1820   1.406       .  A
C1819     Br1828   1.927   1_455  S
C1820     Br1824   1.928   1_455  S
C1829      C1830   1.409   1_655  A
C1829      C1834   1.410       .  A
C1830      C1831   1.399       .  A
C1830     Br1842   1.931       .  S
C1831      C1832   1.406   1_455  A
C1831     Br1846   1.932       .  S
C1832      C1835   1.465       .  S
C1832      C1833   1.405       .  A
C1833      C1834   1.402       .  A
C1833     Br1841   1.930       .  S
C1834     Br1845   1.930       .  S
C1835      C1836   1.404   1_655  A
C1835      C1840   1.404       .  A
C1836      C1837   1.398       .  A
C1836     Br1847   1.935       .  S
C1837      C1838   1.415       .  A
C1837     Br1843   1.932       .  S
C1838      C1839   1.414   1_455  A
C1839      C1840   1.402       .  A
C1839     Br1848   1.934       .  S
C1840     Br1844   1.930       .  S
C1849      C1850   1.429       .  A
C1849      C1854   1.437       .  A
C1850      C1851   1.417       .  A
C1850     Br1862   1.935   1_455  S
C1851      C1852   1.408       .  A
C1851     Br1866   1.933       .  S
C1852      C1855   1.497       .  S
C1852      C1853   1.401       .  A
C1853      C1854   1.412       .  A
C1853     Br1861   1.935       .  S
C1854     Br1865   1.942       .  S
C1855      C1856   1.410       .  A
C1855      C1860   1.411   1_455  A
C1856      C1857   1.411       .  A
C1856     Br1867   1.930       .  S
C1857      C1858   1.411       .  A
C1857     Br1863   1.928       .  S
C1858      C1859   1.410   1_455  A
C1859      C1860   1.414       .  A
C1859     Br1868   1.926       .  S
C1860     Br1864   1.928       .  S
C1869      C1870   1.425   1_655  A
C1869      C1874   1.430       .  A
C1870      C1871   1.421       .  A
C1870     Br1882   1.931       .  S
C1871      C1872   1.412       .  A
C1871     Br1886   1.931       .  S
C1872      C1875   1.501       .  S
C1872      C1873   1.401   1_455  A
C1873      C1874   1.409       .  A
C1873     Br1881   1.936       .  S
C1874     Br1885   1.924       .  S
C1875      C1876   1.413   1_455  A
C1875      C1880   1.411       .  A
C1876      C1877   1.413       .  A
C1876     Br1887   1.929       .  S
C1877      C1878   1.410   1_655  A
C1877     Br1883   1.927       .  S
C1878      C1879   1.411       .  A
C1879      C1880   1.413       .  A
C1879     Br1888   1.926       .  S
C1880     Br1884   1.929       .  S
C1889      C1890   1.415   1_455  A
C1889      C1894   1.412       .  A
C1890      C1891   1.394       .  A
C1890     Br1902   1.936       .  S
C1891      C1892   1.402   1_655  A
C1891     Br1906   1.936       .  S
C1892      C1895   1.454       .  S
C1892      C1893   1.403       .  A
C1893      C1894   1.399       .  A
C1893     Br1901   1.932       .  S
C1894     Br1905   1.931       .  S
C1895      C1896   1.403   1_455  A
C1895      C1900   1.404       .  A
C1896      C1897   1.392       .  A
C1896     Br1907   1.934       .  S
C1897      C1898   1.412   1_655  A
C1897     Br1903   1.934       .  S
C1898      C1899   1.410       .  A
C1899      C1900   1.398       .  A
C1899     Br1908   1.927       .  S
C1900     Br1904   1.931       .  S
