geometry optimzed in LAMMPS
_audit_creation_date              2020-11-30 
_audit_creation_method            'lammps2cif' 
_symmetry_space_group_name_H-M    'P1' 
_symmetry_Int_Tables_number       1 
_symmetry_cell_setting            triclinic 
loop_ 
_symmetry_equiv_pos_as_xyz 
  x,y,z 
_cell_length_a                    45.45321711297526 
_cell_length_b                    21.34631914845299 
_cell_length_c                    28.69131412095458 
_cell_angle_alpha                 90.02904258372565 
_cell_angle_beta                  90.00186942291471 
_cell_angle_gamma                 89.99792589881986 
loop_ 
_atom_site_label 
_atom_site_type_symbol 
_atom_site_fract_x 
_atom_site_fract_y 
_atom_site_fract_z 
_atom_site_charge 
O1          O  0.46716196  0.04981711  0.36552750    -0.85200
C2          C  0.04384740  0.79117072  0.00534058     1.14840
O3          O  0.00111642  0.03526075  0.45675145    -1.33010
O4          O  0.46767854  0.80955991  0.46617720    -0.86690
O5          O  0.46803222  0.13988235  0.40534273    -0.87350
O6          O  0.43941094  0.07185167  0.50482160    -0.76180
O7          O  0.47335021  0.92820818  0.41166877    -0.98260
C8          C  0.44712154  0.93650464  0.09258014     1.24880
O9          O  0.50112605  0.03568382  0.05297682    -1.33160
Mn10       Mn  0.03304170  0.99659549  0.00493993     1.82060
O11         O  0.43882343  0.96082928  0.05490256    -0.75250
O12         O  0.46767904  0.80987143  0.04445811    -0.84650
C13         C  0.05473562  0.93567412  0.09252376     1.15970
C14         C  0.45762424  0.79183966  0.00534942     1.10690
O15         O  0.06298734  0.07059993  0.00479052    -0.76190
O16         O  0.00089992  0.92263188  0.00509004    -1.29880
O17         O  0.02948637  0.14043560  0.00463333    -0.95400
C18         C  0.45654874  0.10403893  0.13303839     1.09400
Mn19       Mn  0.50083478  0.87001767  0.06819718     1.48570
O20         O  0.46809139  0.14084928  0.10399894    -0.84600
Mn21       Mn  0.00133805  0.13559104  0.45377410     1.49560
O22         O  0.03512187  0.04922558  0.36545455    -0.88480
C23         C  0.44710723  0.93585151  0.41755087     1.22600
C24         C  0.04603427  0.10200370  0.37638507     1.14650
Mn25       Mn  0.46903963  0.99719044  0.50495164     1.80970
O26         O  0.02847391  0.92857443  0.09845601    -0.93630
Mn27       Mn  0.50102962  0.99187060  0.39014113     1.49260
C28         C  0.45648683  0.10281035  0.37645918     1.11170
Mn29       Mn  0.00104881  0.99287529  0.11974491     1.49930
C30         C  0.04606394  0.10315112  0.13303208     1.14080
O31         O  0.47320908  0.14105735  0.50466159    -0.99430
O32         O  0.03383147  0.80935351  0.04444723    -0.89090
C33         C  0.44706016  0.12810559  0.50471800     1.25360
O34         O  0.47336830  0.92899265  0.09849314    -0.99820
O35         O  0.03382684  0.80904580  0.46617188    -0.87220
O36         O  0.03514872  0.05046193  0.14416205    -0.86820
O37         O  0.03466847  0.13924089  0.40533132    -0.86850
Mn38       Mn  0.00082788  0.86949782  0.44219109     1.47860
O39         O  0.06312161  0.95974621  0.05482434    -0.75320
C40         C  0.05557286  0.12697569  0.00467386     1.18410
O41         O  0.43881866  0.96044511  0.45515288    -0.74050
O42         O  0.06311233  0.95936069  0.45519150    -0.73670
Mn43       Mn  0.50136136  0.13605920  0.05553594     1.51060
O44         O  0.46719406  0.05108489  0.14412401    -0.86020
O45         O  0.02846788  0.92779044  0.41167883    -0.93550
O46         O  0.03470727  0.14014522  0.10393362    -0.88560
C47         C  0.05472793  0.93502132  0.41756905     1.16200
C48         C  0.11205029  0.27455484  0.50501738     0.06100
C49         C  0.12177271  0.30048177  0.46271290    -0.10050
C50         C  0.13983804  0.35360493  0.46348605     0.03600
C51         C  0.14715864  0.38168150  0.50547496    -0.08570
C52         C  0.13993961  0.35286353  0.04720791     0.06100
C53         C  0.12187558  0.29973446  0.04753172    -0.07990
H54         H  0.11656149  0.27784988  0.42988924     0.11690
H55         H  0.16233465  0.42109088  0.50563721     0.09220
H56         H  0.11673736  0.27653744  0.08014763     0.09070
C57         C  0.39077644  0.27626057  0.50508341     0.06100
C58         C  0.38091055  0.30202704  0.46279047    -0.10050
C59         C  0.36272026  0.35498371  0.46358268     0.03600
C60         C  0.35542904  0.38308326  0.50557498    -0.08570
C61         C  0.36275694  0.35438813  0.04730922     0.06100
C62         C  0.38094786  0.30143081  0.04761251    -0.07990
H63         H  0.38609697  0.27936572  0.42996956     0.11690
H64         H  0.34017054  0.42235135  0.50575861     0.09220
H65         H  0.38616343  0.27831295  0.08022876     0.09070
C66         C  0.38761833  0.67220906  0.00536015     0.06100
C67         C  0.37518255  0.65304876  0.46300100    -0.10050
C68         C  0.35021965  0.61455470  0.46249655     0.03600
C69         C  0.33774166  0.59502995  0.00524778    -0.08570
C70         C  0.35024586  0.61431864  0.04805540     0.06100
C71         C  0.37520864  0.65281613  0.04766352    -0.07990
H72         H  0.38467789  0.66894903  0.43039978     0.11690
H73         H  0.31816517  0.56603543  0.00520627     0.09220
H74         H  0.38472265  0.66854019  0.08031123     0.09070
C75         C  0.11385557  0.67121948  0.00532408     0.06100
C76         C  0.12632381  0.65213135  0.46294425    -0.10050
C77         C  0.15137074  0.61383233  0.46240659     0.03600
C78         C  0.16389431  0.59441784  0.00516249    -0.08570
C79         C  0.15138414  0.61359711  0.04800045     0.06100
C80         C  0.12633661  0.65190196  0.04762440    -0.07990
H81         H  0.11679485  0.66796371  0.43034966     0.11690
H82         H  0.18352507  0.56558756  0.00510072     0.09220
H83         H  0.11681800  0.66755933  0.08028395     0.09070
O84         O  0.21800774  0.36911816  0.15621213    -0.85200
C85         C  0.29593197  0.40774743  0.38386183     1.14840
O86         O  0.25108589  0.47419315  0.20725508    -1.33010
O87         O  0.21791244  0.37006781  0.35486147    -0.86690
O88         O  0.21717180  0.45887230  0.11607202    -0.87350
O89         O  0.18881779  0.54917254  0.20530628    -0.76180
O90         O  0.22311636  0.36889218  0.25554983    -0.98260
C91         C  0.19709241  0.57412904  0.34266010     1.24880
O92         O  0.25090176  0.58724113  0.25514778    -1.33160
Mn93       Mn  0.28301063  0.51321114  0.25530933     1.82050
O94         O  0.18879851  0.54955663  0.30505316    -0.75250
O95         O  0.21708666  0.46012245  0.39469178    -0.84650
C96         C  0.30471366  0.57473206  0.34269499     1.15970
C97         C  0.20638385  0.40716046  0.38374801     1.10690
O98         O  0.31311627  0.55000512  0.20544006    -0.76190
O99         O  0.25106166  0.47460778  0.30348067    -1.29880
O100        O  0.27848680  0.58125302  0.16179925    -0.95400
C101        C  0.20768223  0.71811156  0.25487813     1.09400
Mn102      Mn  0.25098491  0.51799244  0.37009287     1.48570
O103        O  0.21772985  0.70006102  0.21577056    -0.84600
Mn104      Mn  0.25104242  0.51700752  0.14048862     1.49560
O105        O  0.28462452  0.36965147  0.15630643    -0.88480
C106        C  0.19697217  0.38188067  0.25548522     1.22600
C107        C  0.29601051  0.40662984  0.12722815     1.14650
Mn108      Mn  0.21900842  0.51274855  0.25526798     1.80970
O109        O  0.27845587  0.58201457  0.34857224    -0.93630
Mn110      Mn  0.25127525  0.37381805  0.20469017     1.49260
C111        C  0.20649486  0.40594866  0.12715431     1.11170
Mn112      Mn  0.25084841  0.64037089  0.31804901     1.49930
C113        C  0.29390554  0.71862407  0.25491666     1.14080
O114        O  0.22338082  0.58093978  0.16172637    -0.99430
O115        O  0.28504693  0.46055502  0.39478590    -0.89090
C116        C  0.19713051  0.57347103  0.16762952     1.25360
O117        O  0.22333790  0.58171904  0.34855609    -0.99820
O118        O  0.28454893  0.37053413  0.35491648    -0.87220
O119        O  0.28387953  0.70075637  0.29408330    -0.86820
O120        O  0.28512657  0.45935199  0.11610035    -0.86850
Mn121      Mn  0.25123388  0.37427633  0.30645233     1.47860
O122        O  0.31309252  0.55037549  0.30507568    -0.75320
C123        C  0.30474496  0.57410686  0.16774105     1.18410
O124        O  0.18934155  0.43814768  0.25538140    -0.74050
O125        O  0.31291827  0.43914582  0.25546920    -0.73670
Mn126      Mn  0.25086587  0.63985967  0.19204269     1.51060
O127        O  0.21773067  0.70037952  0.29405184    -0.86020
O128        O  0.27939377  0.36935964  0.25560781    -0.93550
O129        O  0.28388193  0.70046462  0.21580827    -0.88560
C130        C  0.30548507  0.38278286  0.25557963     1.16200
C131        C  0.14077690  0.23359740  0.25515210     0.06100
C132        C  0.13096572  0.20837796  0.21263014    -0.10050
C133        C  0.11283939  0.15532361  0.21294187     0.03600
C134        C  0.10556622  0.12657265  0.25467909    -0.08570
C135        C  0.11283036  0.15471770  0.29666852     0.06100
C136        C  0.13095619  0.20777317  0.29744972    -0.07990
H137        H  0.13613675  0.23153670  0.18001293     0.11690
H138        H  0.09035019  0.08723252  0.25450306     0.09220
H139        H  0.13611920  0.23046961  0.33026672     0.09070
C140        C  0.36390219  0.83861167  0.25490284     0.06100
C141        C  0.37636366  0.85795741  0.21259533    -0.10050
C142        C  0.40138725  0.89633227  0.21220610     0.03710
C143        C  0.41389335  0.91555037  0.25503898    -0.08570
C144        C  0.40139007  0.89610813  0.29780154     0.06100
C145        C  0.37636731  0.85774039  0.29727590    -0.07990
H146        H  0.36684762  0.84227263  0.17994072     0.11690
H147        H  0.43350586  0.94443389  0.25509164     0.09220
H148        H  0.36685366  0.84189043  0.32987558     0.09070
C149        C  0.13766352  0.83770190  0.25488847     0.06100
C150        C  0.12523498  0.85706732  0.21259148    -0.10050
C151        C  0.10024783  0.89549468  0.21221191     0.03600
C152        C  0.08773854  0.91474239  0.25502448    -0.08570
C153        C  0.10023629  0.89524407  0.29776912     0.06100
C154        C  0.12522353  0.85681984  0.29725356    -0.07990
H155        H  0.13475261  0.84137218  0.17993923     0.11690
H156        H  0.06814366  0.94368352  0.25507493     0.09220
H157        H  0.13473366  0.84093686  0.32985008     0.09070
C158        C  0.36205200  0.23533495  0.25520703     0.06100
C159        C  0.37189337  0.21021285  0.21268252    -0.10050
C160        C  0.39002284  0.15718237  0.21299126     0.03600
C161        C  0.39729902  0.12841291  0.25471759    -0.08570
C162        C  0.38995221  0.15643466  0.29671294     0.06100
C163        C  0.37182156  0.20945848  0.29750384    -0.07990
H164        H  0.36670894  0.23337428  0.18007013     0.11690
H165        H  0.41251805  0.08907625  0.25454223     0.09220
H166        H  0.36658731  0.23204827  0.33033405     0.09070
C167        C  0.18337920  0.76098690  0.25480959    -0.10300
C168        C  0.16270742  0.79638872  0.25481967    -0.11860
C169        C  0.31816494  0.76174301  0.25485129    -0.10300
C170        C  0.33882639  0.79725074  0.25484310    -0.11860
C171        C  0.15912179  0.28843323  0.25537752    -0.10300
C172        C  0.17555559  0.33268203  0.25547275    -0.11860
C173        C  0.34363075  0.28999318  0.25544809    -0.10300
C174        C  0.32706894  0.33398694  0.25556581    -0.11860
C175        C  0.17734264  0.58654161  0.12913067    -0.10300
C176        C  0.16484544  0.59735151  0.09250555    -0.11860
C177        C  0.17730212  0.58716387  0.38116794    -0.10300
C178        C  0.16481450  0.59782436  0.41783125    -0.11860
C179        C  0.33687850  0.59800995  0.09256628    -0.10300
C180        C  0.32447774  0.58722797  0.12924574    -0.11860
C181        C  0.32442922  0.58782522  0.38123147    -0.10300
C182        C  0.33683286  0.59847088  0.41794053    -0.11860
C183        C  0.34464726  0.37103275  0.08591731    -0.10300
C184        C  0.32315198  0.38767937  0.10677599    -0.11860
C185        C  0.34457663  0.37217009  0.42515294    -0.10300
C186        C  0.32307665  0.38895542  0.40437521    -0.11860
C187        C  0.15800475  0.36968276  0.08580383    -0.10300
C188        C  0.17943869  0.38658834  0.10668179    -0.11860
C189        C  0.15784517  0.37102923  0.42498575    -0.10300
C190        C  0.17928362  0.38804042  0.40418180    -0.11860
C191        C  0.09468945  0.13750197  0.33509299    -0.10300
C192        C  0.07318760  0.12073623  0.35587210    -0.11860
C193        C  0.09471004  0.13865928  0.17436025    -0.10300
C194        C  0.07320861  0.12204145  0.15350433    -0.11860
C195        C  0.09369650  0.21979557  0.50479331    -0.10300
C196        C  0.07716534  0.17575161  0.00468561    -0.11860
C197        C  0.42939664  0.12198983  0.35602025    -0.10300
C198        C  0.40796164  0.13902768  0.33521652    -0.11860
C199        C  0.40806704  0.14039216  0.17436603    -0.10300
C200        C  0.42949531  0.12346100  0.15348616    -0.11860
C201        C  0.42565214  0.17732419  0.50473691    -0.10300
C202        C  0.40918794  0.22152394  0.50484545    -0.11860
C203        C  0.41483138  0.91215768  0.34237273    -0.10300
C204        C  0.42731678  0.92283336  0.37903726    -0.11860
C205        C  0.41483169  0.91261129  0.16769417    -0.10300
C206        C  0.42732497  0.92344105  0.13106905    -0.11860
C207        C  0.43331181  0.74898646  0.00541698    -0.10300
C208        C  0.41264476  0.71357196  0.00541565    -0.11860
C209        C  0.08684708  0.91128427  0.34232910    -0.10300
C210        C  0.07444249  0.92191223  0.37903802    -0.11860
C211        C  0.08686444  0.91177412  0.16770751    -0.10300
C212        C  0.07445983  0.92254182  0.13102860    -0.11860
C213        C  0.06809720  0.74802901  0.00540673    -0.10300
C214        C  0.08876293  0.71253259  0.00540042    -0.11860
O215        O  0.46716196  0.04981711  0.86552750    -0.85200
C216        C  0.04384740  0.79117072  0.50534059     1.14840
O217        O  0.00111642  0.03526075  0.95675145    -1.33010
O218        O  0.46767854  0.80955991  0.96617720    -0.86690
O219        O  0.46803222  0.13988235  0.90534273    -0.87350
O220        O  0.43941094  0.07185167  0.00482160    -0.76180
O221        O  0.47335021  0.92820818  0.91166877    -0.98260
C222        C  0.44712153  0.93650464  0.59258014     1.24880
O223        O  0.50112605  0.03568382  0.55297682    -1.33160
Mn224      Mn  0.03304170  0.99659549  0.50493993     1.82060
O225        O  0.43882343  0.96082928  0.55490256    -0.75250
O226        O  0.46767904  0.80987143  0.54445811    -0.84650
C227        C  0.05473562  0.93567412  0.59252376     1.15970
C228        C  0.45762424  0.79183966  0.50534942     1.10690
O229        O  0.06298734  0.07059992  0.50479052    -0.76190
O230        O  0.00089992  0.92263188  0.50509004    -1.29880
O231        O  0.02948637  0.14043559  0.50463333    -0.95400
C232        C  0.45654874  0.10403893  0.63303839     1.09400
Mn233      Mn  0.50083478  0.87001767  0.56819718     1.48570
O234        O  0.46809139  0.14084928  0.60399894    -0.84600
Mn235      Mn  0.00133805  0.13559104  0.95377410     1.49560
O236        O  0.03512187  0.04922558  0.86545455    -0.88480
C237        C  0.44710723  0.93585151  0.91755087     1.22600
C238        C  0.04603426  0.10200371  0.87638507     1.14650
Mn239      Mn  0.46903963  0.99719044  0.00495164     1.80970
O240        O  0.02847391  0.92857443  0.59845601    -0.93630
Mn241      Mn  0.50102962  0.99187060  0.89014113     1.49260
C242        C  0.45648683  0.10281035  0.87645918     1.11170
Mn243      Mn  0.00104881  0.99287529  0.61974491     1.49930
C244        C  0.04606394  0.10315112  0.63303208     1.14080
O245        O  0.47320908  0.14105735  0.00466159    -0.99430
O246        O  0.03383147  0.80935351  0.54444723    -0.89090
C247        C  0.44706016  0.12810559  0.00471800     1.25360
O248        O  0.47336830  0.92899265  0.59849314    -0.99820
O249        O  0.03382684  0.80904580  0.96617188    -0.87220
O250        O  0.03514872  0.05046193  0.64416205    -0.86820
O251        O  0.03466847  0.13924090  0.90533132    -0.86850
Mn252      Mn  0.00082788  0.86949782  0.94219109     1.47860
O253        O  0.06312161  0.95974621  0.55482434    -0.75320
C254        C  0.05557286  0.12697569  0.50467386     1.18410
O255        O  0.43881866  0.96044511  0.95515288    -0.74050
O256        O  0.06311233  0.95936069  0.95519150    -0.73670
Mn257      Mn  0.50136136  0.13605920  0.55553594     1.51060
O258        O  0.46719406  0.05108489  0.64412401    -0.86020
O259        O  0.02846788  0.92779044  0.91167883    -0.93550
O260        O  0.03470727  0.14014522  0.60393362    -0.88560
C261        C  0.05472793  0.93502132  0.91756905     1.16200
C262        C  0.11205029  0.27455484  0.00501738     0.06100
C263        C  0.12177271  0.30048177  0.96271290    -0.10050
C264        C  0.13983804  0.35360493  0.96348605     0.03600
C265        C  0.14715864  0.38168150  0.00547496    -0.08570
C266        C  0.13993961  0.35286353  0.54720791     0.06100
C267        C  0.12187558  0.29973446  0.54753172    -0.07990
H268        H  0.11656149  0.27784988  0.92988924     0.11690
H269        H  0.16233465  0.42109088  0.00563721     0.09220
H270        H  0.11673736  0.27653744  0.58014763     0.09070
C271        C  0.39077644  0.27626057  0.00508341     0.06100
C272        C  0.38091055  0.30202704  0.96279047    -0.10050
C273        C  0.36272025  0.35498371  0.96358268     0.03600
C274        C  0.35542904  0.38308326  0.00557498    -0.08570
C275        C  0.36275694  0.35438813  0.54730922     0.06100
C276        C  0.38094786  0.30143081  0.54761251    -0.07990
H277        H  0.38609697  0.27936572  0.92996956     0.11690
H278        H  0.34017054  0.42235135  0.00575861     0.09220
H279        H  0.38616343  0.27831295  0.58022876     0.09070
C280        C  0.38761833  0.67220906  0.50536015     0.06100
C281        C  0.37518255  0.65304876  0.96300100    -0.10050
C282        C  0.35021965  0.61455470  0.96249655     0.03600
C283        C  0.33774166  0.59502995  0.50524778    -0.08570
C284        C  0.35024586  0.61431864  0.54805540     0.06100
C285        C  0.37520864  0.65281613  0.54766352    -0.07990
H286        H  0.38467789  0.66894903  0.93039978     0.11690
H287        H  0.31816517  0.56603543  0.50520627     0.09220
H288        H  0.38472265  0.66854019  0.58031122     0.09070
C289        C  0.11385557  0.67121948  0.50532408     0.06100
C290        C  0.12632381  0.65213135  0.96294425    -0.10050
C291        C  0.15137074  0.61383233  0.96240659     0.03600
C292        C  0.16389431  0.59441784  0.50516249    -0.08570
C293        C  0.15138414  0.61359711  0.54800045     0.06100
C294        C  0.12633661  0.65190196  0.54762441    -0.07990
H295        H  0.11679485  0.66796371  0.93034966     0.11690
H296        H  0.18352507  0.56558756  0.50510072     0.09220
H297        H  0.11681800  0.66755933  0.58028395     0.09070
O298        O  0.21800774  0.36911816  0.65621213    -0.85200
C299        C  0.29593197  0.40774743  0.88386183     1.14840
O300        O  0.25108589  0.47419315  0.70725507    -1.33010
O301        O  0.21791244  0.37006781  0.85486147    -0.86690
O302        O  0.21717180  0.45887230  0.61607202    -0.87350
O303        O  0.18881779  0.54917254  0.70530628    -0.76180
O304        O  0.22311636  0.36889218  0.75554983    -0.98260
C305        C  0.19709241  0.57412904  0.84266010     1.24880
O306        O  0.25090176  0.58724113  0.75514778    -1.33160
Mn307      Mn  0.28301063  0.51321114  0.75530933     1.82050
O308        O  0.18879851  0.54955663  0.80505316    -0.75250
O309        O  0.21708666  0.46012245  0.89469178    -0.84650
C310        C  0.30471366  0.57473206  0.84269499     1.15970
C311        C  0.20638385  0.40716046  0.88374801     1.10690
O312        O  0.31311627  0.55000512  0.70544006    -0.76190
O313        O  0.25106166  0.47460778  0.80348067    -1.29880
O314        O  0.27848680  0.58125302  0.66179925    -0.95400
C315        C  0.20768223  0.71811156  0.75487813     1.09400
Mn316      Mn  0.25098491  0.51799244  0.87009287     1.48570
O317        O  0.21772985  0.70006102  0.71577056    -0.84600
Mn318      Mn  0.25104242  0.51700752  0.64048862     1.49560
O319        O  0.28462452  0.36965147  0.65630643    -0.88480
C320        C  0.19697217  0.38188067  0.75548522     1.22600
C321        C  0.29601051  0.40662984  0.62722815     1.14650
Mn322      Mn  0.21900842  0.51274854  0.75526798     1.80970
O323        O  0.27845587  0.58201457  0.84857224    -0.93630
Mn324      Mn  0.25127525  0.37381805  0.70469017     1.49260
C325        C  0.20649486  0.40594866  0.62715431     1.11170
Mn326      Mn  0.25084841  0.64037089  0.81804901     1.49930
C327        C  0.29390554  0.71862407  0.75491666     1.14080
O328        O  0.22338082  0.58093978  0.66172637    -0.99430
O329        O  0.28504693  0.46055502  0.89478590    -0.89090
C330        C  0.19713051  0.57347103  0.66762952     1.25360
O331        O  0.22333790  0.58171904  0.84855609    -0.99820
O332        O  0.28454893  0.37053413  0.85491648    -0.87220
O333        O  0.28387953  0.70075637  0.79408330    -0.86820
O334        O  0.28512657  0.45935199  0.61610035    -0.86850
Mn335      Mn  0.25123388  0.37427633  0.80645233     1.47860
O336        O  0.31309252  0.55037549  0.80507568    -0.75320
C337        C  0.30474496  0.57410686  0.66774105     1.18410
O338        O  0.18934155  0.43814768  0.75538140    -0.74050
O339        O  0.31291827  0.43914582  0.75546920    -0.73670
Mn340      Mn  0.25086587  0.63985967  0.69204269     1.51060
O341        O  0.21773067  0.70037952  0.79405184    -0.86020
O342        O  0.27939377  0.36935964  0.75560781    -0.93550
O343        O  0.28388193  0.70046462  0.71580827    -0.88560
C344        C  0.30548507  0.38278286  0.75557963     1.16200
C345        C  0.14077690  0.23359740  0.75515210     0.06100
C346        C  0.13096572  0.20837796  0.71263014    -0.10050
C347        C  0.11283939  0.15532361  0.71294187     0.03600
C348        C  0.10556622  0.12657265  0.75467909    -0.08570
C349        C  0.11283036  0.15471771  0.79666852     0.06100
C350        C  0.13095619  0.20777317  0.79744972    -0.07990
H351        H  0.13613675  0.23153670  0.68001293     0.11690
H352        H  0.09035019  0.08723252  0.75450306     0.09220
H353        H  0.13611920  0.23046961  0.83026672     0.09070
C354        C  0.36390219  0.83861167  0.75490284     0.06100
C355        C  0.37636366  0.85795741  0.71259533    -0.10050
C356        C  0.40138725  0.89633227  0.71220610     0.03710
C357        C  0.41389335  0.91555037  0.75503898    -0.08570
C358        C  0.40139007  0.89610813  0.79780154     0.06100
C359        C  0.37636731  0.85774039  0.79727590    -0.07990
H360        H  0.36684762  0.84227263  0.67994072     0.11690
H361        H  0.43350586  0.94443389  0.75509164     0.09220
H362        H  0.36685366  0.84189043  0.82987558     0.09070
C363        C  0.13766352  0.83770190  0.75488848     0.06100
C364        C  0.12523498  0.85706732  0.71259148    -0.10050
C365        C  0.10024783  0.89549468  0.71221191     0.03600
C366        C  0.08773854  0.91474239  0.75502448    -0.08570
C367        C  0.10023629  0.89524407  0.79776912     0.06100
C368        C  0.12522353  0.85681984  0.79725356    -0.07990
H369        H  0.13475261  0.84137218  0.67993923     0.11690
H370        H  0.06814366  0.94368352  0.75507493     0.09220
H371        H  0.13473366  0.84093686  0.82985008     0.09070
C372        C  0.36205200  0.23533495  0.75520703     0.06100
C373        C  0.37189337  0.21021285  0.71268252    -0.10050
C374        C  0.39002284  0.15718237  0.71299126     0.03600
C375        C  0.39729902  0.12841291  0.75471759    -0.08570
C376        C  0.38995221  0.15643466  0.79671294     0.06100
C377        C  0.37182156  0.20945848  0.79750384    -0.07990
H378        H  0.36670894  0.23337428  0.68007013     0.11690
H379        H  0.41251805  0.08907625  0.75454223     0.09220
H380        H  0.36658731  0.23204827  0.83033405     0.09070
C381        C  0.18337920  0.76098690  0.75480959    -0.10300
C382        C  0.16270742  0.79638872  0.75481967    -0.11860
C383        C  0.31816494  0.76174301  0.75485129    -0.10300
C384        C  0.33882639  0.79725074  0.75484310    -0.11860
C385        C  0.15912179  0.28843323  0.75537752    -0.10300
C386        C  0.17555559  0.33268203  0.75547275    -0.11860
C387        C  0.34363075  0.28999318  0.75544809    -0.10300
C388        C  0.32706894  0.33398694  0.75556581    -0.11860
C389        C  0.17734264  0.58654161  0.62913067    -0.10300
C390        C  0.16484544  0.59735151  0.59250555    -0.11860
C391        C  0.17730212  0.58716387  0.88116794    -0.10300
C392        C  0.16481450  0.59782436  0.91783125    -0.11860
C393        C  0.33687850  0.59800995  0.59256628    -0.10300
C394        C  0.32447774  0.58722797  0.62924574    -0.11860
C395        C  0.32442922  0.58782522  0.88123147    -0.10300
C396        C  0.33683286  0.59847088  0.91794053    -0.11860
C397        C  0.34464726  0.37103275  0.58591731    -0.10300
C398        C  0.32315198  0.38767937  0.60677599    -0.11860
C399        C  0.34457663  0.37217009  0.92515294    -0.10300
C400        C  0.32307665  0.38895542  0.90437521    -0.11860
C401        C  0.15800475  0.36968276  0.58580383    -0.10300
C402        C  0.17943869  0.38658835  0.60668179    -0.11860
C403        C  0.15784517  0.37102923  0.92498575    -0.10300
C404        C  0.17928362  0.38804042  0.90418180    -0.11860
C405        C  0.09468945  0.13750197  0.83509299    -0.10300
C406        C  0.07318759  0.12073623  0.85587210    -0.11860
C407        C  0.09471005  0.13865928  0.67436025    -0.10300
C408        C  0.07320861  0.12204145  0.65350433    -0.11860
C409        C  0.09369650  0.21979557  0.00479331    -0.10300
C410        C  0.07716534  0.17575161  0.50468561    -0.11860
C411        C  0.42939664  0.12198983  0.85602025    -0.10300
C412        C  0.40796164  0.13902768  0.83521652    -0.11860
C413        C  0.40806704  0.14039216  0.67436603    -0.10300
C414        C  0.42949531  0.12346099  0.65348616    -0.11860
C415        C  0.42565214  0.17732419  0.00473691    -0.10300
C416        C  0.40918794  0.22152394  0.00484545    -0.11860
C417        C  0.41483138  0.91215768  0.84237273    -0.10300
C418        C  0.42731678  0.92283336  0.87903726    -0.11860
C419        C  0.41483169  0.91261129  0.66769417    -0.10300
C420        C  0.42732497  0.92344105  0.63106904    -0.11860
C421        C  0.43331181  0.74898646  0.50541698    -0.10300
C422        C  0.41264476  0.71357197  0.50541565    -0.11860
C423        C  0.08684708  0.91128427  0.84232910    -0.10300
C424        C  0.07444249  0.92191223  0.87903802    -0.11860
C425        C  0.08686444  0.91177412  0.66770751    -0.10300
C426        C  0.07445983  0.92254182  0.63102861    -0.11860
C427        C  0.06809720  0.74802901  0.50540673    -0.10300
C428        C  0.08876293  0.71253259  0.50540042    -0.11860
O429        O  0.96716196  0.04981711  0.36552750    -0.85200
C430        C  0.54384740  0.79117072  0.00534059     1.14840
O431        O  0.50111642  0.03526075  0.45675146    -1.33010
O432        O  0.96767854  0.80955991  0.46617720    -0.86690
O433        O  0.96803222  0.13988235  0.40534273    -0.87350
O434        O  0.93941094  0.07185167  0.50482160    -0.76180
O435        O  0.97335021  0.92820818  0.41166877    -0.98260
C436        C  0.94712153  0.93650464  0.09258013     1.24880
O437        O  0.00112605  0.03568382  0.05297682    -1.33160
Mn438      Mn  0.53304170  0.99659549  0.00493993     1.82060
O439        O  0.93882343  0.96082928  0.05490255    -0.75250
O440        O  0.96767904  0.80987143  0.04445811    -0.84650
C441        C  0.55473562  0.93567412  0.09252376     1.15970
C442        C  0.95762424  0.79183966  0.00534942     1.10690
O443        O  0.56298734  0.07059993  0.00479052    -0.76190
O444        O  0.50089992  0.92263188  0.00509004    -1.29880
O445        O  0.52948637  0.14043560  0.00463333    -0.95400
C446        C  0.95654874  0.10403893  0.13303839     1.09400
Mn447      Mn  0.00083478  0.87001767  0.06819718     1.48570
O448        O  0.96809139  0.14084928  0.10399894    -0.84600
Mn449      Mn  0.50133805  0.13559104  0.45377410     1.49560
O450        O  0.53512187  0.04922559  0.36545455    -0.88480
C451        C  0.94710723  0.93585151  0.41755087     1.22600
C452        C  0.54603426  0.10200371  0.37638507     1.14650
Mn453      Mn  0.96903964  0.99719044  0.50495164     1.80970
O454        O  0.52847391  0.92857443  0.09845602    -0.93630
Mn455      Mn  0.00102962  0.99187060  0.39014113     1.49260
C456        C  0.95648683  0.10281035  0.37645917     1.11170
Mn457      Mn  0.50104881  0.99287529  0.11974491     1.49930
C458        C  0.54606394  0.10315112  0.13303208     1.14080
O459        O  0.97320908  0.14105735  0.50466159    -0.99430
O460        O  0.53383147  0.80935351  0.04444723    -0.89090
C461        C  0.94706016  0.12810559  0.50471800     1.25360
O462        O  0.97336830  0.92899265  0.09849314    -0.99820
O463        O  0.53382684  0.80904580  0.46617188    -0.87220
O464        O  0.53514872  0.05046193  0.14416205    -0.86820
O465        O  0.53466847  0.13924090  0.40533132    -0.86850
Mn466      Mn  0.50082788  0.86949782  0.44219109     1.47860
O467        O  0.56312161  0.95974621  0.05482435    -0.75320
C468        C  0.55557286  0.12697569  0.00467386     1.18410
O469        O  0.93881866  0.96044511  0.45515287    -0.74050
O470        O  0.56311233  0.95936069  0.45519150    -0.73670
Mn471      Mn  0.00136136  0.13605920  0.05553594     1.51060
O472        O  0.96719406  0.05108489  0.14412401    -0.86020
O473        O  0.52846788  0.92779044  0.41167883    -0.93550
O474        O  0.53470727  0.14014522  0.10393362    -0.88560
C475        C  0.55472793  0.93502133  0.41756905     1.16200
C476        C  0.61205029  0.27455484  0.50501738     0.06100
C477        C  0.62177271  0.30048177  0.46271290    -0.10050
C478        C  0.63983804  0.35360493  0.46348605     0.03600
C479        C  0.64715864  0.38168150  0.50547496    -0.08570
C480        C  0.63993960  0.35286353  0.04720791     0.06100
C481        C  0.62187558  0.29973446  0.04753172    -0.07990
H482        H  0.61656149  0.27784988  0.42988924     0.11690
H483        H  0.66233465  0.42109088  0.50563721     0.09220
H484        H  0.61673735  0.27653744  0.08014763     0.09070
C485        C  0.89077644  0.27626057  0.50508341     0.06100
C486        C  0.88091055  0.30202704  0.46279047    -0.10050
C487        C  0.86272026  0.35498371  0.46358268     0.03600
C488        C  0.85542904  0.38308326  0.50557498    -0.08570
C489        C  0.86275693  0.35438813  0.04730922     0.06100
C490        C  0.88094786  0.30143081  0.04761251    -0.07990
H491        H  0.88609697  0.27936573  0.42996956     0.11690
H492        H  0.84017054  0.42235135  0.50575861     0.09220
H493        H  0.88616342  0.27831294  0.08022876     0.09070
C494        C  0.88761833  0.67220906  0.00536015     0.06100
C495        C  0.87518255  0.65304876  0.46300099    -0.10050
C496        C  0.85021965  0.61455470  0.46249655     0.03600
C497        C  0.83774166  0.59502995  0.00524778    -0.08570
C498        C  0.85024586  0.61431864  0.04805540     0.06100
C499        C  0.87520864  0.65281613  0.04766351    -0.07990
H500        H  0.88467789  0.66894903  0.43039978     0.11690
H501        H  0.81816517  0.56603543  0.00520627     0.09220
H502        H  0.88472265  0.66854019  0.08031122     0.09070
C503        C  0.61385557  0.67121948  0.00532408     0.06100
C504        C  0.62632381  0.65213135  0.46294425    -0.10050
C505        C  0.65137074  0.61383233  0.46240659     0.03600
C506        C  0.66389431  0.59441784  0.00516249    -0.08570
C507        C  0.65138414  0.61359711  0.04800045     0.06100
C508        C  0.62633661  0.65190196  0.04762441    -0.07990
H509        H  0.61679485  0.66796371  0.43034966     0.11690
H510        H  0.68352507  0.56558756  0.00510072     0.09220
H511        H  0.61681800  0.66755933  0.08028395     0.09070
O512        O  0.71800773  0.36911816  0.15621213    -0.85200
C513        C  0.79593197  0.40774743  0.38386182     1.14840
O514        O  0.75108589  0.47419315  0.20725507    -1.33010
O515        O  0.71791244  0.37006781  0.35486148    -0.86690
O516        O  0.71717180  0.45887230  0.11607202    -0.87350
O517        O  0.68881779  0.54917254  0.20530629    -0.76180
O518        O  0.72311636  0.36889218  0.25554983    -0.98260
C519        C  0.69709241  0.57412904  0.34266010     1.24880
O520        O  0.75090176  0.58724113  0.25514778    -1.33160
Mn521      Mn  0.78301063  0.51321114  0.25530933     1.82050
O522        O  0.68879851  0.54955663  0.30505316    -0.75250
O523        O  0.71708666  0.46012245  0.39469178    -0.84650
C524        C  0.80471366  0.57473206  0.34269499     1.15970
C525        C  0.70638385  0.40716046  0.38374801     1.10690
O526        O  0.81311627  0.55000512  0.20544006    -0.76190
O527        O  0.75106166  0.47460778  0.30348067    -1.29880
O528        O  0.77848680  0.58125302  0.16179925    -0.95400
C529        C  0.70768223  0.71811156  0.25487813     1.09400
Mn530      Mn  0.75098491  0.51799244  0.37009287     1.48570
O531        O  0.71772985  0.70006102  0.21577056    -0.84600
Mn532      Mn  0.75104242  0.51700752  0.14048862     1.49560
O533        O  0.78462452  0.36965147  0.15630643    -0.88480
C534        C  0.69697217  0.38188067  0.25548523     1.22600
C535        C  0.79601051  0.40662984  0.12722815     1.14650
Mn536      Mn  0.71900842  0.51274855  0.25526798     1.80970
O537        O  0.77845587  0.58201457  0.34857224    -0.93630
Mn538      Mn  0.75127525  0.37381805  0.20469017     1.49260
C539        C  0.70649486  0.40594866  0.12715431     1.11170
Mn540      Mn  0.75084841  0.64037089  0.31804901     1.49930
C541        C  0.79390554  0.71862407  0.25491666     1.14080
O542        O  0.72338082  0.58093978  0.16172637    -0.99430
O543        O  0.78504693  0.46055502  0.39478590    -0.89090
C544        C  0.69713051  0.57347103  0.16762952     1.25360
O545        O  0.72333790  0.58171904  0.34855609    -0.99820
O546        O  0.78454893  0.37053413  0.35491648    -0.87220
O547        O  0.78387953  0.70075637  0.29408330    -0.86820
O548        O  0.78512657  0.45935199  0.11610035    -0.86850
Mn549      Mn  0.75123388  0.37427633  0.30645232     1.47860
O550        O  0.81309252  0.55037549  0.30507568    -0.75320
C551        C  0.80474495  0.57410686  0.16774105     1.18410
O552        O  0.68934155  0.43814768  0.25538140    -0.74050
O553        O  0.81291827  0.43914582  0.25546920    -0.73670
Mn554      Mn  0.75086587  0.63985968  0.19204269     1.51060
O555        O  0.71773067  0.70037952  0.29405184    -0.86020
O556        O  0.77939377  0.36935964  0.25560781    -0.93550
O557        O  0.78388193  0.70046462  0.21580827    -0.88560
C558        C  0.80548507  0.38278286  0.25557962     1.16200
C559        C  0.64077690  0.23359740  0.25515210     0.06100
C560        C  0.63096572  0.20837796  0.21263014    -0.10050
C561        C  0.61283939  0.15532362  0.21294187     0.03600
C562        C  0.60556621  0.12657265  0.25467909    -0.08570
C563        C  0.61283036  0.15471771  0.29666852     0.06100
C564        C  0.63095619  0.20777317  0.29744972    -0.07990
H565        H  0.63613675  0.23153670  0.18001293     0.11690
H566        H  0.59035019  0.08723252  0.25450306     0.09220
H567        H  0.63611920  0.23046961  0.33026672     0.09070
C568        C  0.86390219  0.83861167  0.25490284     0.06100
C569        C  0.87636366  0.85795741  0.21259533    -0.10050
C570        C  0.90138725  0.89633227  0.21220609     0.03710
C571        C  0.91389335  0.91555037  0.25503898    -0.08570
C572        C  0.90139007  0.89610814  0.29780154     0.06100
C573        C  0.87636731  0.85774039  0.29727590    -0.07990
H574        H  0.86684762  0.84227263  0.17994072     0.11690
H575        H  0.93350586  0.94443389  0.25509164     0.09220
H576        H  0.86685366  0.84189043  0.32987558     0.09070
C577        C  0.63766352  0.83770190  0.25488848     0.06100
C578        C  0.62523498  0.85706732  0.21259149    -0.10050
C579        C  0.60024783  0.89549468  0.21221191     0.03600
C580        C  0.58773854  0.91474239  0.25502448    -0.08570
C581        C  0.60023629  0.89524407  0.29776912     0.06100
C582        C  0.62522353  0.85681984  0.29725356    -0.07990
H583        H  0.63475261  0.84137218  0.17993923     0.11690
H584        H  0.56814366  0.94368352  0.25507493     0.09220
H585        H  0.63473366  0.84093686  0.32985008     0.09070
C586        C  0.86205200  0.23533495  0.25520703     0.06100
C587        C  0.87189337  0.21021285  0.21268252    -0.10050
C588        C  0.89002284  0.15718237  0.21299126     0.03600
C589        C  0.89729902  0.12841291  0.25471758    -0.08570
C590        C  0.88995221  0.15643466  0.29671294     0.06100
C591        C  0.87182156  0.20945848  0.29750384    -0.07990
H592        H  0.86670894  0.23337428  0.18007013     0.11690
H593        H  0.91251805  0.08907625  0.25454223     0.09220
H594        H  0.86658731  0.23204828  0.33033405     0.09070
C595        C  0.68337920  0.76098690  0.25480959    -0.10300
C596        C  0.66270742  0.79638872  0.25481967    -0.11860
C597        C  0.81816494  0.76174301  0.25485129    -0.10300
C598        C  0.83882639  0.79725074  0.25484310    -0.11860
C599        C  0.65912179  0.28843323  0.25537752    -0.10300
C600        C  0.67555559  0.33268203  0.25547275    -0.11860
C601        C  0.84363075  0.28999318  0.25544808    -0.10300
C602        C  0.82706894  0.33398694  0.25556581    -0.11860
C603        C  0.67734264  0.58654161  0.12913067    -0.10300
C604        C  0.66484544  0.59735151  0.09250555    -0.11860
C605        C  0.67730212  0.58716387  0.38116794    -0.10300
C606        C  0.66481450  0.59782436  0.41783125    -0.11860
C607        C  0.83687850  0.59800995  0.09256628    -0.10300
C608        C  0.82447774  0.58722797  0.12924574    -0.11860
C609        C  0.82442923  0.58782522  0.38123147    -0.10300
C610        C  0.83683286  0.59847088  0.41794053    -0.11860
C611        C  0.84464726  0.37103275  0.08591731    -0.10300
C612        C  0.82315198  0.38767937  0.10677599    -0.11860
C613        C  0.84457664  0.37217009  0.42515294    -0.10300
C614        C  0.82307665  0.38895543  0.40437521    -0.11860
C615        C  0.65800475  0.36968276  0.08580383    -0.10300
C616        C  0.67943869  0.38658835  0.10668179    -0.11860
C617        C  0.65784517  0.37102923  0.42498575    -0.10300
C618        C  0.67928362  0.38804041  0.40418180    -0.11860
C619        C  0.59468945  0.13750197  0.33509299    -0.10300
C620        C  0.57318759  0.12073623  0.35587210    -0.11860
C621        C  0.59471005  0.13865928  0.17436025    -0.10300
C622        C  0.57320861  0.12204145  0.15350434    -0.11860
C623        C  0.59369650  0.21979557  0.50479331    -0.10300
C624        C  0.57716534  0.17575161  0.00468561    -0.11860
C625        C  0.92939664  0.12198983  0.35602025    -0.10300
C626        C  0.90796164  0.13902769  0.33521652    -0.11860
C627        C  0.90806704  0.14039216  0.17436603    -0.10300
C628        C  0.92949531  0.12346100  0.15348615    -0.11860
C629        C  0.92565215  0.17732420  0.50473691    -0.10300
C630        C  0.90918794  0.22152394  0.50484545    -0.11860
C631        C  0.91483138  0.91215768  0.34237273    -0.10300
C632        C  0.92731678  0.92283336  0.37903726    -0.11860
C633        C  0.91483169  0.91261129  0.16769417    -0.10300
C634        C  0.92732497  0.92344105  0.13106904    -0.11860
C635        C  0.93331181  0.74898646  0.00541698    -0.10300
C636        C  0.91264476  0.71357196  0.00541565    -0.11860
C637        C  0.58684708  0.91128427  0.34232910    -0.10300
C638        C  0.57444249  0.92191223  0.37903802    -0.11860
C639        C  0.58686444  0.91177412  0.16770751    -0.10300
C640        C  0.57445983  0.92254182  0.13102861    -0.11860
C641        C  0.56809720  0.74802902  0.00540673    -0.10300
C642        C  0.58876293  0.71253259  0.00540042    -0.11860
O643        O  0.96716196  0.04981711  0.86552750    -0.85200
C644        C  0.54384740  0.79117072  0.50534059     1.14840
O645        O  0.50111642  0.03526075  0.95675146    -1.33010
O646        O  0.96767854  0.80955990  0.96617720    -0.86690
O647        O  0.96803222  0.13988235  0.90534273    -0.87350
O648        O  0.93941094  0.07185167  0.00482160    -0.76180
O649        O  0.97335021  0.92820818  0.91166877    -0.98260
C650        C  0.94712153  0.93650464  0.59258013     1.24880
O651        O  0.00112605  0.03568382  0.55297682    -1.33160
Mn652      Mn  0.53304170  0.99659549  0.50493993     1.82060
O653        O  0.93882343  0.96082928  0.55490255    -0.75250
O654        O  0.96767904  0.80987143  0.54445811    -0.84650
C655        C  0.55473562  0.93567412  0.59252376     1.15970
C656        C  0.95762424  0.79183966  0.50534942     1.10690
O657        O  0.56298734  0.07059993  0.50479052    -0.76190
O658        O  0.50089992  0.92263188  0.50509004    -1.29880
O659        O  0.52948637  0.14043560  0.50463333    -0.95400
C660        C  0.95654874  0.10403893  0.63303839     1.09400
Mn661      Mn  0.00083478  0.87001767  0.56819718     1.48570
O662        O  0.96809139  0.14084928  0.60399894    -0.84600
Mn663      Mn  0.50133805  0.13559104  0.95377410     1.49560
O664        O  0.53512187  0.04922558  0.86545455    -0.88480
C665        C  0.94710723  0.93585151  0.91755087     1.22600
C666        C  0.54603426  0.10200371  0.87638508     1.14650
Mn667      Mn  0.96903963  0.99719044  0.00495164     1.80970
O668        O  0.52847391  0.92857443  0.59845602    -0.93630
Mn669      Mn  0.00102962  0.99187060  0.89014113     1.49260
C670        C  0.95648683  0.10281035  0.87645917     1.11170
Mn671      Mn  0.50104881  0.99287529  0.61974491     1.49930
C672        C  0.54606394  0.10315112  0.63303208     1.14080
O673        O  0.97320908  0.14105735  0.00466159    -0.99430
O674        O  0.53383147  0.80935351  0.54444723    -0.89090
C675        C  0.94706016  0.12810559  0.00471800     1.25360
O676        O  0.97336830  0.92899265  0.59849314    -0.99820
O677        O  0.53382684  0.80904580  0.96617188    -0.87220
O678        O  0.53514872  0.05046193  0.64416205    -0.86820
O679        O  0.53466847  0.13924090  0.90533132    -0.86850
Mn680      Mn  0.50082788  0.86949782  0.94219109     1.47860
O681        O  0.56312161  0.95974621  0.55482435    -0.75320
C682        C  0.55557286  0.12697570  0.50467386     1.18410
O683        O  0.93881866  0.96044511  0.95515287    -0.74050
O684        O  0.56311233  0.95936069  0.95519150    -0.73670
Mn685      Mn  0.00136136  0.13605920  0.55553594     1.51060
O686        O  0.96719406  0.05108489  0.64412401    -0.86020
O687        O  0.52846788  0.92779044  0.91167883    -0.93550
O688        O  0.53470727  0.14014522  0.60393362    -0.88560
C689        C  0.55472793  0.93502133  0.91756905     1.16200
C690        C  0.61205029  0.27455484  0.00501738     0.06100
C691        C  0.62177271  0.30048177  0.96271291    -0.10050
C692        C  0.63983804  0.35360493  0.96348605     0.03600
C693        C  0.64715864  0.38168150  0.00547496    -0.08570
C694        C  0.63993960  0.35286354  0.54720791     0.06100
C695        C  0.62187558  0.29973446  0.54753172    -0.07990
H696        H  0.61656149  0.27784988  0.92988924     0.11690
H697        H  0.66233465  0.42109088  0.00563721     0.09220
H698        H  0.61673735  0.27653744  0.58014763     0.09070
C699        C  0.89077644  0.27626057  0.00508341     0.06100
C700        C  0.88091055  0.30202704  0.96279047    -0.10050
C701        C  0.86272026  0.35498371  0.96358267     0.03600
C702        C  0.85542904  0.38308326  0.00557498    -0.08570
C703        C  0.86275693  0.35438813  0.54730922     0.06100
C704        C  0.88094786  0.30143081  0.54761251    -0.07990
H705        H  0.88609697  0.27936572  0.92996956     0.11690
H706        H  0.84017054  0.42235135  0.00575861     0.09220
H707        H  0.88616342  0.27831294  0.58022876     0.09070
C708        C  0.88761833  0.67220906  0.50536015     0.06100
C709        C  0.87518255  0.65304876  0.96300099    -0.10050
C710        C  0.85021965  0.61455470  0.96249655     0.03600
C711        C  0.83774166  0.59502995  0.50524778    -0.08570
C712        C  0.85024586  0.61431864  0.54805540     0.06100
C713        C  0.87520864  0.65281613  0.54766352    -0.07990
H714        H  0.88467789  0.66894903  0.93039977     0.11690
H715        H  0.81816517  0.56603543  0.50520627     0.09220
H716        H  0.88472265  0.66854019  0.58031122     0.09070
C717        C  0.61385557  0.67121948  0.50532408     0.06100
C718        C  0.62632381  0.65213135  0.96294425    -0.10050
C719        C  0.65137074  0.61383233  0.96240659     0.03600
C720        C  0.66389431  0.59441784  0.50516249    -0.08570
C721        C  0.65138414  0.61359711  0.54800045     0.06100
C722        C  0.62633661  0.65190196  0.54762440    -0.07990
H723        H  0.61679485  0.66796371  0.93034966     0.11690
H724        H  0.68352507  0.56558756  0.50510072     0.09220
H725        H  0.61681800  0.66755933  0.58028395     0.09070
O726        O  0.71800773  0.36911816  0.65621213    -0.85200
C727        C  0.79593197  0.40774743  0.88386182     1.14840
O728        O  0.75108589  0.47419315  0.70725507    -1.33010
O729        O  0.71791244  0.37006781  0.85486148    -0.86690
O730        O  0.71717180  0.45887230  0.61607202    -0.87350
O731        O  0.68881779  0.54917254  0.70530629    -0.76180
O732        O  0.72311636  0.36889218  0.75554983    -0.98260
C733        C  0.69709241  0.57412904  0.84266010     1.24880
O734        O  0.75090176  0.58724113  0.75514778    -1.33160
Mn735      Mn  0.78301062  0.51321114  0.75530933     1.82050
O736        O  0.68879851  0.54955663  0.80505316    -0.75250
O737        O  0.71708666  0.46012245  0.89469178    -0.84650
C738        C  0.80471366  0.57473206  0.84269499     1.15970
C739        C  0.70638385  0.40716046  0.88374801     1.10690
O740        O  0.81311626  0.55000512  0.70544005    -0.76190
O741        O  0.75106166  0.47460778  0.80348067    -1.29880
O742        O  0.77848680  0.58125302  0.66179925    -0.95400
C743        C  0.70768223  0.71811156  0.75487813     1.09400
Mn744      Mn  0.75098491  0.51799244  0.87009287     1.48570
O745        O  0.71772985  0.70006102  0.71577056    -0.84600
Mn746      Mn  0.75104242  0.51700752  0.64048862     1.49560
O747        O  0.78462452  0.36965147  0.65630643    -0.88480
C748        C  0.69697217  0.38188067  0.75548522     1.22600
C749        C  0.79601051  0.40662984  0.62722815     1.14650
Mn750      Mn  0.71900842  0.51274855  0.75526798     1.80970
O751        O  0.77845587  0.58201457  0.84857224    -0.93630
Mn752      Mn  0.75127525  0.37381805  0.70469017     1.49260
C753        C  0.70649486  0.40594866  0.62715431     1.11170
Mn754      Mn  0.75084841  0.64037089  0.81804901     1.49930
C755        C  0.79390554  0.71862407  0.75491666     1.14080
O756        O  0.72338082  0.58093978  0.66172637    -0.99430
O757        O  0.78504693  0.46055502  0.89478590    -0.89090
C758        C  0.69713051  0.57347103  0.66762952     1.25360
O759        O  0.72333790  0.58171904  0.84855609    -0.99820
O760        O  0.78454893  0.37053413  0.85491648    -0.87220
O761        O  0.78387953  0.70075637  0.79408330    -0.86820
O762        O  0.78512657  0.45935199  0.61610035    -0.86850
Mn763      Mn  0.75123388  0.37427633  0.80645232     1.47860
O764        O  0.81309252  0.55037549  0.80507568    -0.75320
C765        C  0.80474495  0.57410686  0.66774105     1.18410
O766        O  0.68934155  0.43814769  0.75538140    -0.74050
O767        O  0.81291826  0.43914582  0.75546920    -0.73670
Mn768      Mn  0.75086587  0.63985968  0.69204269     1.51060
O769        O  0.71773067  0.70037952  0.79405184    -0.86020
O770        O  0.77939377  0.36935964  0.75560781    -0.93550
O771        O  0.78388193  0.70046462  0.71580827    -0.88560
C772        C  0.80548507  0.38278286  0.75557962     1.16200
C773        C  0.64077690  0.23359740  0.75515210     0.06100
C774        C  0.63096572  0.20837796  0.71263014    -0.10050
C775        C  0.61283939  0.15532362  0.71294187     0.03600
C776        C  0.60556621  0.12657265  0.75467909    -0.08570
C777        C  0.61283036  0.15471771  0.79666852     0.06100
C778        C  0.63095619  0.20777317  0.79744972    -0.07990
H779        H  0.63613675  0.23153670  0.68001293     0.11690
H780        H  0.59035019  0.08723252  0.75450306     0.09220
H781        H  0.63611920  0.23046961  0.83026672     0.09070
C782        C  0.86390219  0.83861167  0.75490284     0.06100
C783        C  0.87636366  0.85795741  0.71259533    -0.10050
C784        C  0.90138725  0.89633227  0.71220609     0.03710
C785        C  0.91389335  0.91555037  0.75503898    -0.08570
C786        C  0.90139007  0.89610814  0.79780154     0.06100
C787        C  0.87636731  0.85774039  0.79727590    -0.07990
H788        H  0.86684762  0.84227263  0.67994072     0.11690
H789        H  0.93350586  0.94443389  0.75509164     0.09220
H790        H  0.86685366  0.84189043  0.82987558     0.09070
C791        C  0.63766352  0.83770190  0.75488848     0.06100
C792        C  0.62523498  0.85706733  0.71259149    -0.10050
C793        C  0.60024783  0.89549468  0.71221191     0.03600
C794        C  0.58773854  0.91474239  0.75502448    -0.08570
C795        C  0.60023629  0.89524407  0.79776912     0.06100
C796        C  0.62522353  0.85681984  0.79725356    -0.07990
H797        H  0.63475262  0.84137218  0.67993923     0.11690
H798        H  0.56814366  0.94368352  0.75507493     0.09220
H799        H  0.63473367  0.84093686  0.82985008     0.09070
C800        C  0.86205200  0.23533495  0.75520703     0.06100
C801        C  0.87189337  0.21021285  0.71268251    -0.10050
C802        C  0.89002284  0.15718237  0.71299126     0.03600
C803        C  0.89729902  0.12841291  0.75471758    -0.08570
C804        C  0.88995221  0.15643466  0.79671294     0.06100
C805        C  0.87182156  0.20945848  0.79750384    -0.07990
H806        H  0.86670894  0.23337428  0.68007013     0.11690
H807        H  0.91251805  0.08907625  0.75454223     0.09220
H808        H  0.86658730  0.23204827  0.83033405     0.09070
C809        C  0.68337920  0.76098690  0.75480959    -0.10300
C810        C  0.66270742  0.79638872  0.75481967    -0.11860
C811        C  0.81816494  0.76174301  0.75485129    -0.10300
C812        C  0.83882639  0.79725074  0.75484310    -0.11860
C813        C  0.65912179  0.28843324  0.75537752    -0.10300
C814        C  0.67555559  0.33268203  0.75547275    -0.11860
C815        C  0.84363075  0.28999318  0.75544808    -0.10300
C816        C  0.82706894  0.33398694  0.75556581    -0.11860
C817        C  0.67734264  0.58654161  0.62913067    -0.10300
C818        C  0.66484544  0.59735151  0.59250555    -0.11860
C819        C  0.67730212  0.58716387  0.88116794    -0.10300
C820        C  0.66481450  0.59782436  0.91783125    -0.11860
C821        C  0.83687850  0.59800995  0.59256628    -0.10300
C822        C  0.82447774  0.58722797  0.62924574    -0.11860
C823        C  0.82442922  0.58782522  0.88123147    -0.10300
C824        C  0.83683286  0.59847088  0.91794053    -0.11860
C825        C  0.84464726  0.37103275  0.58591731    -0.10300
C826        C  0.82315198  0.38767937  0.60677599    -0.11860
C827        C  0.84457663  0.37217009  0.92515294    -0.10300
C828        C  0.82307665  0.38895542  0.90437521    -0.11860
C829        C  0.65800475  0.36968276  0.58580383    -0.10300
C830        C  0.67943869  0.38658835  0.60668179    -0.11860
C831        C  0.65784517  0.37102923  0.92498575    -0.10300
C832        C  0.67928362  0.38804042  0.90418180    -0.11860
C833        C  0.59468945  0.13750197  0.83509299    -0.10300
C834        C  0.57318759  0.12073623  0.85587210    -0.11860
C835        C  0.59471004  0.13865928  0.67436025    -0.10300
C836        C  0.57320861  0.12204145  0.65350434    -0.11860
C837        C  0.59369650  0.21979557  0.00479331    -0.10300
C838        C  0.57716534  0.17575161  0.50468561    -0.11860
C839        C  0.92939664  0.12198983  0.85602025    -0.10300
C840        C  0.90796164  0.13902768  0.83521652    -0.11860
C841        C  0.90806704  0.14039216  0.67436603    -0.10300
C842        C  0.92949531  0.12346100  0.65348615    -0.11860
C843        C  0.92565214  0.17732419  0.00473691    -0.10300
C844        C  0.90918794  0.22152394  0.00484545    -0.11860
C845        C  0.91483138  0.91215768  0.84237273    -0.10300
C846        C  0.92731678  0.92283336  0.87903725    -0.11860
C847        C  0.91483169  0.91261129  0.66769417    -0.10300
C848        C  0.92732497  0.92344105  0.63106904    -0.11860
C849        C  0.93331181  0.74898646  0.50541698    -0.10300
C850        C  0.91264476  0.71357197  0.50541565    -0.11860
C851        C  0.58684708  0.91128427  0.84232910    -0.10300
C852        C  0.57444249  0.92191223  0.87903802    -0.11860
C853        C  0.58686444  0.91177412  0.66770751    -0.10300
C854        C  0.57445983  0.92254182  0.63102861    -0.11860
C855        C  0.56809720  0.74802902  0.50540673    -0.10300
C856        C  0.58876293  0.71253259  0.50540042    -0.11860
loop_ 
_geom_bond_atom_site_label_1 
_geom_bond_atom_site_label_2 
_geom_bond_distance 
_geom_bond_site_symmetry_2 
_ccdc_geom_bond_type 
O1           C28   1.270       .  A
O1          Mn27   2.097   1_545  S
C2           O32   1.271       .  A
C2          O249   1.271   1_554  A
C2          C213   1.436       .  S
O3          Mn21   2.143       .  S
O3         Mn224   2.168   1_545  S
O3         Mn453   2.168   1_445  S
O3         Mn455   2.123   1_545  S
O4          C228   1.271       .  A
O4         Mn466   2.093       .  S
O5           C28   1.260       .  A
O5         Mn449   2.057       .  S
O6           C33   1.250       .  A
O6          Mn25   2.087   1_545  S
O7          Mn27   1.952       .  S
O7         Mn466   1.974       .  S
O7           C23   1.216       .  S
C8           O11   1.257       .  A
C8          C206   1.452       .  S
C8           O34   1.216       .  S
O9          Mn43   2.144       .  S
O9         Mn457   2.123   1_545  S
O9         Mn438   2.168   1_545  S
O9         Mn239   2.168   1_545  S
Mn10         O39   2.130       .  S
Mn10         O15   2.085   1_565  S
Mn10        O256   2.130   1_554  S
Mn10         O16   2.151       .  S
Mn10        O217   2.168   1_564  S
Mn10        O437   2.168   1_565  S
O11        Mn239   2.132       .  S
O12          C14   1.271       .  A
O12         Mn19   2.093       .  S
C13          O39   1.257       .  A
C13         C212   1.450       .  S
C13          O26   1.215       .  S
C14         O218   1.271   1_554  A
C14         C207   1.435       .  S
O15          C40   1.250       .  A
O16        Mn447   2.131       .  S
O16        Mn252   2.131   1_554  S
O16        Mn667   2.152   1_455  S
O17        Mn235   1.943   1_554  S
O17        Mn471   1.943       .  S
O17          C40   1.220       .  S
C18          O44   1.270       .  A
C18          O20   1.260       .  A
C18         C200   1.424       .  S
Mn19        O460   2.095       .  S
Mn19        O444   2.131       .  S
Mn19         O34   1.974       .  S
Mn19        O454   1.973       .  S
O20         Mn43   2.057       .  S
Mn21         O37   2.057       .  S
Mn21        O433   2.057   1_455  S
Mn21        O231   1.943       .  S
Mn21        O459   1.944   1_455  S
O22          C24   1.270       .  A
O22        Mn455   2.098   1_545  S
C23          O41   1.257       .  A
C23         C204   1.452       .  S
C24          O37   1.260       .  A
C24         C192   1.425       .  S
Mn25         O41   2.131       .  S
Mn25        O225   2.132       .  S
Mn25        O431   2.168   1_565  S
Mn25        O223   2.168   1_565  S
Mn25        O658   2.152       .  S
O26         Mn29   1.952       .  S
O26        Mn447   1.973       .  S
Mn27        O450   2.098   1_565  S
Mn27        O431   2.123   1_565  S
Mn27        O473   1.952       .  S
C28         C197   1.424       .  S
Mn29         O36   2.098   1_565  S
Mn29        O472   2.098   1_465  S
Mn29        O437   2.123   1_565  S
Mn29        O462   1.953   1_455  S
C30          O36   1.270       .  A
C30          O46   1.260       .  A
C30         C194   1.425       .  S
O31        Mn449   1.944       .  S
O31        Mn257   1.944       .  S
O31          C33   1.220       .  S
O32        Mn447   2.095       .  S
C33         C201   1.432       .  S
O34        Mn457   1.953       .  S
O35         C216   1.271       .  A
O35         Mn38   2.095       .  S
Mn38        O432   2.093   1_455  S
Mn38        O230   2.131       .  S
Mn38         O45   1.973       .  S
Mn38        O435   1.974   1_455  S
C40         C196   1.431       .  S
O42          C47   1.257       .  A
O42        Mn224   2.130       .  S
Mn43        O474   2.057       .  S
Mn43        O445   1.943       .  S
Mn43        O245   1.944       .  S
O44        Mn457   2.098   1_545  S
O45        Mn455   1.952       .  S
O45          C47   1.215       .  S
O46        Mn471   2.057       .  S
C47         C210   1.450       .  S
C48         C195   1.436       .  S
C48          C49   1.406       .  A
C48         C267   1.406       .  A
C49          C50   1.400       .  A
C49          H54   1.084       .  S
C50         C189   1.424       .  S
C50          C51   1.386       .  A
C51         C266   1.386       .  A
C51          H55   1.088       .  S
C52         C187   1.424       .  S
C52          C53   1.400       .  A
C52         C265   1.386       .  A
C53         C262   1.406       .  A
C53          H56   1.084       .  S
C57         C202   1.437       .  S
C57          C58   1.406       .  A
C57         C276   1.406       .  A
C58          C59   1.401       .  A
C58          H63   1.084       .  S
C59         C185   1.425       .  S
C59          C60   1.386       .  A
C60         C275   1.386       .  A
C60          H64   1.088       .  S
C61         C183   1.425       .  S
C61          C62   1.401       .  A
C61         C274   1.386       .  A
C62         C271   1.406       .  A
C62          H65   1.084       .  S
C66         C208   1.440       .  S
C66          C71   1.401       .  A
C66         C281   1.401   1_554  A
C67          C68   1.401       .  A
C67         C280   1.401       .  A
C67          H72   1.085       .  S
C68         C182   1.457       .  S
C68         C283   1.414       .  A
C69          C70   1.414       .  A
C69         C282   1.414   1_554  A
C69          H73   1.084       .  S
C70         C179   1.457       .  S
C70          C71   1.401       .  A
C71          H74   1.085       .  S
C75         C214   1.442       .  S
C75          C80   1.402       .  A
C75         C290   1.402   1_554  A
C76          C77   1.402       .  A
C76         C289   1.402       .  A
C76          H81   1.085       .  S
C77         C178   1.458       .  S
C77         C292   1.415       .  A
C78          C79   1.415       .  A
C78         C291   1.415   1_554  A
C78          H82   1.084       .  S
C79         C176   1.458       .  S
C79          C80   1.402       .  A
C80          H83   1.085       .  S
O84         C111   1.260       .  A
O84        Mn110   2.057       .  S
C85         O118   1.260       .  A
C85         O115   1.270       .  A
C85         C186   1.425       .  S
O86         Mn93   2.168       .  S
O86        Mn104   2.123       .  S
O86        Mn108   2.168       .  S
O86        Mn110   2.144       .  S
O87          C97   1.260       .  A
O87        Mn121   2.057       .  S
O88         C111   1.270       .  A
O88        Mn104   2.098       .  S
O89         C116   1.257       .  A
O89        Mn108   2.132       .  S
O90        Mn121   1.944       .  S
O90        Mn110   1.944       .  S
O90         C106   1.220       .  S
C91          O94   1.257       .  A
C91         C177   1.452       .  S
C91         O117   1.216       .  S
O92        Mn112   2.131       .  S
O92         Mn93   2.151       .  S
O92        Mn126   2.131       .  S
O92        Mn108   2.152       .  S
Mn93        O122   2.130       .  S
Mn93         O98   2.130       .  S
Mn93        O125   2.085       .  S
Mn93         O99   2.168       .  S
O94        Mn108   2.131       .  S
O95          C97   1.270       .  A
O95        Mn102   2.097       .  S
C96         O122   1.257       .  A
C96         C181   1.450       .  S
C96         O109   1.215       .  S
C97         C190   1.424       .  S
O98         C123   1.257       .  A
O99        Mn102   2.123       .  S
O99        Mn121   2.143       .  S
O99        Mn108   2.168       .  S
O100       Mn104   1.952       .  S
O100       Mn126   1.973       .  S
O100        C123   1.215       .  S
C101        O127   1.271       .  A
C101        O103   1.271       .  A
C101        C167   1.435       .  S
Mn102       O115   2.098       .  S
Mn102       O117   1.952       .  S
Mn102       O109   1.952       .  S
O103       Mn126   2.093       .  S
Mn104       O120   2.098       .  S
Mn104       O114   1.953       .  S
O105        C107   1.260       .  A
O105       Mn110   2.057       .  S
C106        O124   1.250       .  A
C106        C172   1.432       .  S
C107        O120   1.270       .  A
C107        C184   1.425       .  S
Mn108       O124   2.087       .  S
O109       Mn112   1.973       .  S
Mn110       O128   1.943       .  S
C111        C188   1.424       .  S
Mn112       O119   2.095       .  S
Mn112       O127   2.093       .  S
Mn112       O117   1.974       .  S
C113        O119   1.271       .  A
C113        O129   1.271       .  A
C113        C169   1.436       .  S
O114       Mn126   1.974       .  S
O114        C116   1.216       .  S
C116        C175   1.452       .  S
O118       Mn121   2.057       .  S
Mn121       O128   1.944       .  S
C123        C180   1.450       .  S
O125        C130   1.250       .  A
Mn126       O129   2.095       .  S
O128        C130   1.220       .  S
C130        C174   1.431       .  S
C131        C171   1.437       .  S
C131        C132   1.406       .  A
C131        C136   1.406       .  A
C132        C133   1.401       .  A
C132        H137   1.084       .  S
C133        C193   1.425       .  S
C133        C134   1.386       .  A
C134        C135   1.386       .  A
C134        H138   1.088       .  S
C135        C191   1.425       .  S
C135        C136   1.401       .  A
C136        H139   1.084       .  S
C140        C170   1.442       .  S
C140        C141   1.402       .  A
C140        C145   1.402       .  A
C141        C142   1.402       .  A
C141        H146   1.085       .  S
C142        C205   1.458       .  S
C142        C143   1.415       .  A
C143        C144   1.415       .  A
C143        H147   1.084       .  S
C144        C203   1.458       .  S
C144        C145   1.402       .  A
C145        H148   1.085       .  S
C149        C168   1.440       .  S
C149        C150   1.401       .  A
C149        C154   1.401       .  A
C150        C151   1.401       .  A
C150        H155   1.085       .  S
C151        C211   1.457       .  S
C151        C152   1.414       .  A
C152        C153   1.414       .  A
C152        H156   1.084       .  S
C153        C209   1.457       .  S
C153        C154   1.401       .  A
C154        H157   1.085       .  S
C158        C173   1.436       .  S
C158        C159   1.406       .  A
C158        C163   1.406       .  A
C159        C160   1.400       .  A
C159        H164   1.084       .  S
C160        C199   1.424       .  S
C160        C161   1.386       .  A
C161        C162   1.386       .  A
C161        H165   1.088       .  S
C162        C198   1.424       .  S
C162        C163   1.400       .  A
C163        H166   1.084       .  S
C167        C168   1.206       .  T
C169        C170   1.207       .  T
C171        C172   1.204       .  T
C173        C174   1.204       .  T
C175        C176   1.217       .  T
C177        C178   1.217       .  T
C179        C180   1.216       .  T
C181        C182   1.216       .  T
C183        C184   1.200       .  T
C185        C186   1.200       .  T
C187        C188   1.199       .  T
C189        C190   1.199       .  T
C191        C192   1.200       .  T
C193        C194   1.200       .  T
C195        C410   1.204       .  T
C196        C409   1.204       .  T
C197        C198   1.199       .  T
C199        C200   1.199       .  T
C201        C202   1.204       .  T
C203        C204   1.217       .  T
C205        C206   1.217       .  T
C207        C208   1.206       .  T
C209        C210   1.216       .  T
C211        C212   1.216       .  T
C213        C214   1.207       .  T
O215        C242   1.270       .  A
O215       Mn241   2.097   1_545  S
C216        O246   1.271       .  A
C216        C427   1.436       .  S
O217       Mn235   2.143       .  S
O217       Mn667   2.168   1_446  S
O217       Mn669   2.123   1_545  S
O218       Mn680   2.093       .  S
O219        C242   1.260       .  A
O219       Mn663   2.057       .  S
O220        C247   1.250       .  A
O220       Mn239   2.087   1_545  S
O221       Mn680   1.974       .  S
O221       Mn241   1.952       .  S
O221        C237   1.216       .  S
C222        O225   1.257       .  A
C222        C420   1.452       .  S
C222        O248   1.216       .  S
O223       Mn671   2.123   1_545  S
O223       Mn652   2.168   1_545  S
O223       Mn257   2.144       .  S
Mn224       O253   2.130       .  S
Mn224       O229   2.085   1_565  S
Mn224       O651   2.168   1_565  S
Mn224       O230   2.151       .  S
O226        C228   1.271       .  A
O226       Mn233   2.093       .  S
C227        O253   1.257       .  A
C227        C426   1.450       .  S
C227        O240   1.215       .  S
C228        C421   1.435       .  S
O229        C254   1.250       .  A
O230       Mn661   2.131       .  S
O230       Mn453   2.152   1_455  S
O231       Mn685   1.943       .  S
O231        C254   1.220       .  S
C232        O258   1.270       .  A
C232        O234   1.260       .  A
C232        C414   1.424       .  S
Mn233       O674   2.095       .  S
Mn233       O658   2.131       .  S
Mn233       O248   1.974       .  S
Mn233       O668   1.973       .  S
O234       Mn257   2.057       .  S
Mn235       O647   2.057   1_455  S
Mn235       O251   2.057       .  S
Mn235       O673   1.944   1_456  S
O236        C238   1.270       .  A
O236       Mn669   2.098   1_545  S
C237        O255   1.257       .  A
C237        C418   1.452       .  S
C238        O251   1.260       .  A
C238        C406   1.425       .  S
Mn239       O255   2.131   1_554  S
Mn239       O645   2.168   1_564  S
Mn239       O444   2.152       .  S
O240       Mn661   1.973       .  S
O240       Mn243   1.952       .  S
Mn241       O664   2.098   1_565  S
Mn241       O645   2.123   1_565  S
Mn241       O687   1.952       .  S
C242        C411   1.424       .  S
Mn243       O250   2.098   1_565  S
Mn243       O686   2.098   1_465  S
Mn243       O651   2.123   1_565  S
Mn243       O676   1.953   1_455  S
C244        O250   1.270       .  A
C244        O260   1.260       .  A
C244        C408   1.425       .  S
O245       Mn663   1.944   1_554  S
O245        C247   1.220       .  S
O246       Mn661   2.095       .  S
C247        C415   1.432       .  S
O248       Mn671   1.953       .  S
O249       Mn252   2.095       .  S
Mn252       O646   2.093   1_455  S
Mn252       O649   1.974   1_455  S
Mn252       O259   1.973       .  S
C254        C410   1.431       .  S
O256        C261   1.257       .  A
Mn257       O688   2.057       .  S
Mn257       O659   1.943       .  S
O258       Mn671   2.098   1_545  S
O259       Mn669   1.952       .  S
O259        C261   1.215       .  S
O260       Mn685   2.057       .  S
C261        C424   1.450       .  S
C262        C409   1.436       .  S
C262        C263   1.406   1_554  A
C263        C264   1.400       .  A
C263        H268   1.084       .  S
C264        C403   1.424       .  S
C264        C265   1.386   1_556  A
C265        H269   1.088       .  S
C266        C401   1.424       .  S
C266        C267   1.400       .  A
C267        H270   1.084       .  S
C271        C416   1.437       .  S
C271        C272   1.406   1_554  A
C272        C273   1.401       .  A
C272        H277   1.084       .  S
C273        C399   1.425       .  S
C273        C274   1.386   1_556  A
C274        H278   1.088       .  S
C275        C397   1.425       .  S
C275        C276   1.401       .  A
C276        H279   1.084       .  S
C280        C422   1.440       .  S
C280        C285   1.401       .  A
C281        C282   1.401       .  A
C281        H286   1.085       .  S
C282        C396   1.457       .  S
C283        C284   1.414       .  A
C283        H287   1.084       .  S
C284        C393   1.457       .  S
C284        C285   1.401       .  A
C285        H288   1.085       .  S
C289        C428   1.442       .  S
C289        C294   1.402       .  A
C290        C291   1.402       .  A
C290        H295   1.085       .  S
C291        C392   1.458       .  S
C292        C293   1.415       .  A
C292        H296   1.084       .  S
C293        C390   1.458       .  S
C293        C294   1.402       .  A
C294        H297   1.085       .  S
O298        C325   1.260       .  A
O298       Mn324   2.057       .  S
C299        O332   1.260       .  A
C299        O329   1.270       .  A
C299        C400   1.425       .  S
O300       Mn307   2.168       .  S
O300       Mn318   2.123       .  S
O300       Mn322   2.168       .  S
O300       Mn324   2.144       .  S
O301        C311   1.260       .  A
O301       Mn335   2.057       .  S
O302        C325   1.270       .  A
O302       Mn318   2.098       .  S
O303        C330   1.257       .  A
O303       Mn322   2.132       .  S
O304       Mn335   1.944       .  S
O304       Mn324   1.944       .  S
O304        C320   1.220       .  S
C305        O308   1.257       .  A
C305        C391   1.452       .  S
C305        O331   1.216       .  S
O306       Mn326   2.131       .  S
O306       Mn307   2.151       .  S
O306       Mn340   2.131       .  S
O306       Mn322   2.152       .  S
Mn307       O336   2.130       .  S
Mn307       O312   2.130       .  S
Mn307       O339   2.085       .  S
Mn307       O313   2.168       .  S
O308       Mn322   2.131       .  S
O309        C311   1.270       .  A
O309       Mn316   2.097       .  S
C310        O336   1.257       .  A
C310        C395   1.450       .  S
C310        O323   1.215       .  S
C311        C404   1.424       .  S
O312        C337   1.257       .  A
O313       Mn316   2.123       .  S
O313       Mn335   2.143       .  S
O313       Mn322   2.168       .  S
O314       Mn318   1.952       .  S
O314       Mn340   1.973       .  S
O314        C337   1.215       .  S
C315        O341   1.271       .  A
C315        O317   1.271       .  A
C315        C381   1.435       .  S
Mn316       O329   2.098       .  S
Mn316       O331   1.952       .  S
Mn316       O323   1.952       .  S
O317       Mn340   2.093       .  S
Mn318       O334   2.098       .  S
Mn318       O328   1.953       .  S
O319        C321   1.260       .  A
O319       Mn324   2.057       .  S
C320        O338   1.250       .  A
C320        C386   1.432       .  S
C321        O334   1.270       .  A
C321        C398   1.425       .  S
Mn322       O338   2.087       .  S
O323       Mn326   1.973       .  S
Mn324       O342   1.943       .  S
C325        C402   1.424       .  S
Mn326       O333   2.095       .  S
Mn326       O341   2.093       .  S
Mn326       O331   1.974       .  S
C327        O333   1.271       .  A
C327        O343   1.271       .  A
C327        C383   1.436       .  S
O328       Mn340   1.974       .  S
O328        C330   1.216       .  S
C330        C389   1.452       .  S
O332       Mn335   2.057       .  S
Mn335       O342   1.944       .  S
C337        C394   1.450       .  S
O339        C344   1.250       .  A
Mn340       O343   2.095       .  S
O342        C344   1.220       .  S
C344        C388   1.431       .  S
C345        C385   1.437       .  S
C345        C346   1.406       .  A
C345        C350   1.406       .  A
C346        C347   1.401       .  A
C346        H351   1.084       .  S
C347        C407   1.425       .  S
C347        C348   1.386       .  A
C348        C349   1.386       .  A
C348        H352   1.088       .  S
C349        C405   1.425       .  S
C349        C350   1.401       .  A
C350        H353   1.084       .  S
C354        C384   1.442       .  S
C354        C355   1.402       .  A
C354        C359   1.402       .  A
C355        C356   1.402       .  A
C355        H360   1.085       .  S
C356        C419   1.458       .  S
C356        C357   1.415       .  A
C357        C358   1.415       .  A
C357        H361   1.084       .  S
C358        C417   1.458       .  S
C358        C359   1.402       .  A
C359        H362   1.085       .  S
C363        C382   1.440       .  S
C363        C364   1.401       .  A
C363        C368   1.401       .  A
C364        C365   1.401       .  A
C364        H369   1.085       .  S
C365        C425   1.457       .  S
C365        C366   1.414       .  A
C366        C367   1.414       .  A
C366        H370   1.084       .  S
C367        C423   1.457       .  S
C367        C368   1.401       .  A
C368        H371   1.085       .  S
C372        C387   1.436       .  S
C372        C373   1.406       .  A
C372        C377   1.406       .  A
C373        C374   1.400       .  A
C373        H378   1.084       .  S
C374        C413   1.424       .  S
C374        C375   1.386       .  A
C375        C376   1.386       .  A
C375        H379   1.088       .  S
C376        C412   1.424       .  S
C376        C377   1.400       .  A
C377        H380   1.084       .  S
C381        C382   1.206       .  T
C383        C384   1.207       .  T
C385        C386   1.204       .  T
C387        C388   1.204       .  T
C389        C390   1.217       .  T
C391        C392   1.217       .  T
C393        C394   1.216       .  T
C395        C396   1.216       .  T
C397        C398   1.200       .  T
C399        C400   1.200       .  T
C401        C402   1.199       .  T
C403        C404   1.199       .  T
C405        C406   1.200       .  T
C407        C408   1.200       .  T
C411        C412   1.199       .  T
C413        C414   1.199       .  T
C415        C416   1.204       .  T
C417        C418   1.217       .  T
C419        C420   1.217       .  T
C421        C422   1.206       .  T
C423        C424   1.216       .  T
C425        C426   1.216       .  T
C427        C428   1.207       .  T
O429        C456   1.270       .  A
O429       Mn455   2.097   1_645  S
C430        O677   1.271   1_554  A
C430        O460   1.271       .  A
C430        C641   1.436       .  S
O431       Mn652   2.168   1_545  S
O431       Mn449   2.143       .  S
O432        C656   1.271       .  A
O433        C456   1.260       .  A
O434        C461   1.250       .  A
O434       Mn453   2.087   1_545  S
O435       Mn455   1.952   1_655  S
O435        C451   1.216       .  S
C436        O439   1.257       .  A
C436        C634   1.452       .  S
C436        O462   1.216       .  S
O437       Mn471   2.144       .  S
O437       Mn667   2.168   1_445  S
Mn438       O467   2.130       .  S
Mn438       O443   2.085   1_565  S
Mn438       O684   2.130   1_554  S
Mn438       O645   2.168   1_564  S
Mn438       O444   2.151       .  S
O439       Mn667   2.132       .  S
O440        C442   1.271       .  A
O440       Mn447   2.093   1_655  S
C441        O467   1.257       .  A
C441        C640   1.450       .  S
C441        O454   1.215       .  S
C442        O646   1.271   1_554  A
C442        C635   1.435       .  S
O443        C468   1.250       .  A
O444       Mn680   2.131   1_554  S
O445       Mn663   1.943   1_554  S
O445        C468   1.220       .  S
C446        O472   1.270       .  A
C446        O448   1.260       .  A
C446        C628   1.424       .  S
Mn447       O462   1.974   1_455  S
O448       Mn471   2.057   1_655  S
Mn449       O465   2.057       .  S
Mn449       O659   1.943       .  S
O450        C452   1.270       .  A
C451        O469   1.257       .  A
C451        C632   1.452       .  S
C452        O465   1.260       .  A
C452        C620   1.425       .  S
Mn453       O653   2.132       .  S
Mn453       O469   2.131       .  S
Mn453       O651   2.168   1_665  S
O454       Mn457   1.952       .  S
C456        C625   1.424       .  S
Mn457       O464   2.098   1_565  S
C458        O464   1.270       .  A
C458        O474   1.260       .  A
C458        C622   1.425       .  S
O459       Mn685   1.944   1_655  S
O459        C461   1.220       .  S
C461        C629   1.432       .  S
O463        C644   1.271       .  A
O463       Mn466   2.095       .  S
Mn466       O658   2.131       .  S
Mn466       O473   1.973       .  S
C468        C624   1.431       .  S
O470        C475   1.257       .  A
O470       Mn652   2.130       .  S
Mn471       O673   1.944   1_455  S
O473        C475   1.215       .  S
C475        C638   1.450       .  S
C476        C623   1.436       .  S
C476        C477   1.406       .  A
C476        C695   1.406       .  A
C477        C478   1.400       .  A
C477        H482   1.084       .  S
C478        C617   1.424       .  S
C478        C479   1.386       .  A
C479        C694   1.386       .  A
C479        H483   1.088       .  S
C480        C615   1.424       .  S
C480        C693   1.386       .  A
C480        C481   1.400       .  A
C481        C690   1.406       .  A
C481        H484   1.084       .  S
C485        C630   1.437       .  S
C485        C486   1.406       .  A
C485        C704   1.406       .  A
C486        C487   1.401       .  A
C486        H491   1.084       .  S
C487        C613   1.425       .  S
C487        C488   1.386       .  A
C488        C703   1.386       .  A
C488        H492   1.088       .  S
C489        C611   1.425       .  S
C489        C702   1.386       .  A
C489        C490   1.401       .  A
C490        C699   1.406       .  A
C490        H493   1.084       .  S
C494        C636   1.440       .  S
C494        C709   1.401   1_554  A
C494        C499   1.401       .  A
C495        C708   1.401       .  A
C495        C496   1.401       .  A
C495        H500   1.085       .  S
C496        C610   1.457       .  S
C496        C711   1.414       .  A
C497        C710   1.414   1_554  A
C497        C498   1.414       .  A
C497        H501   1.084       .  S
C498        C607   1.457       .  S
C498        C499   1.401       .  A
C499        H502   1.085       .  S
C503        C642   1.442       .  S
C503        C718   1.402   1_554  A
C503        C508   1.402       .  A
C504        C717   1.402       .  A
C504        C505   1.402       .  A
C504        H509   1.085       .  S
C505        C606   1.458       .  S
C505        C720   1.415       .  A
C506        C719   1.415   1_554  A
C506        C507   1.415       .  A
C506        H510   1.084       .  S
C507        C604   1.458       .  S
C507        C508   1.402       .  A
C508        H511   1.085       .  S
O512        C539   1.260       .  A
O512       Mn538   2.057       .  S
C513        O546   1.260       .  A
C513        O543   1.270       .  A
C513        C614   1.425       .  S
O514       Mn521   2.168       .  S
O514       Mn532   2.123       .  S
O514       Mn536   2.168       .  S
O514       Mn538   2.144       .  S
O515        C525   1.260       .  A
O515       Mn549   2.057       .  S
O516        C539   1.270       .  A
O516       Mn532   2.098       .  S
O517        C544   1.257       .  A
O517       Mn536   2.132       .  S
O518       Mn549   1.944       .  S
O518       Mn538   1.944       .  S
O518        C534   1.220       .  S
C519        O522   1.257       .  A
C519        C605   1.452       .  S
C519        O545   1.216       .  S
O520       Mn540   2.131       .  S
O520       Mn521   2.151       .  S
O520       Mn554   2.131       .  S
O520       Mn536   2.152       .  S
Mn521       O550   2.130       .  S
Mn521       O526   2.130       .  S
Mn521       O553   2.085       .  S
Mn521       O527   2.168       .  S
O522       Mn536   2.131       .  S
O523        C525   1.270       .  A
O523       Mn530   2.097       .  S
C524        O550   1.257       .  A
C524        C609   1.450       .  S
C524        O537   1.215       .  S
C525        C618   1.424       .  S
O526        C551   1.257       .  A
O527       Mn530   2.123       .  S
O527       Mn549   2.143       .  S
O527       Mn536   2.168       .  S
O528       Mn532   1.952       .  S
O528       Mn554   1.973       .  S
O528        C551   1.215       .  S
C529        O555   1.271       .  A
C529        O531   1.271       .  A
C529        C595   1.435       .  S
Mn530       O543   2.098       .  S
Mn530       O545   1.952       .  S
Mn530       O537   1.952       .  S
O531       Mn554   2.093       .  S
Mn532       O548   2.098       .  S
Mn532       O542   1.953       .  S
O533        C535   1.260       .  A
O533       Mn538   2.057       .  S
C534        O552   1.250       .  A
C534        C600   1.432       .  S
C535        O548   1.270       .  A
C535        C612   1.425       .  S
Mn536       O552   2.087       .  S
O537       Mn540   1.973       .  S
Mn538       O556   1.943       .  S
C539        C616   1.424       .  S
Mn540       O547   2.095       .  S
Mn540       O555   2.093       .  S
Mn540       O545   1.974       .  S
C541        O547   1.271       .  A
C541        O557   1.271       .  A
C541        C597   1.436       .  S
O542       Mn554   1.974       .  S
O542        C544   1.216       .  S
C544        C603   1.452       .  S
O546       Mn549   2.057       .  S
Mn549       O556   1.944       .  S
C551        C608   1.450       .  S
O553        C558   1.250       .  A
Mn554       O557   2.095       .  S
O556        C558   1.220       .  S
C558        C602   1.431       .  S
C559        C599   1.437       .  S
C559        C560   1.406       .  A
C559        C564   1.406       .  A
C560        C561   1.401       .  A
C560        H565   1.084       .  S
C561        C621   1.425       .  S
C561        C562   1.386       .  A
C562        C563   1.386       .  A
C562        H566   1.088       .  S
C563        C619   1.425       .  S
C563        C564   1.401       .  A
C564        H567   1.084       .  S
C568        C598   1.442       .  S
C568        C569   1.402       .  A
C568        C573   1.402       .  A
C569        C570   1.402       .  A
C569        H574   1.085       .  S
C570        C633   1.458       .  S
C570        C571   1.415       .  A
C571        C572   1.415       .  A
C571        H575   1.084       .  S
C572        C631   1.458       .  S
C572        C573   1.402       .  A
C573        H576   1.085       .  S
C577        C596   1.440       .  S
C577        C578   1.401       .  A
C577        C582   1.401       .  A
C578        C579   1.401       .  A
C578        H583   1.085       .  S
C579        C639   1.457       .  S
C579        C580   1.414       .  A
C580        C581   1.414       .  A
C580        H584   1.084       .  S
C581        C637   1.457       .  S
C581        C582   1.401       .  A
C582        H585   1.085       .  S
C586        C601   1.436       .  S
C586        C587   1.406       .  A
C586        C591   1.406       .  A
C587        C588   1.400       .  A
C587        H592   1.084       .  S
C588        C627   1.424       .  S
C588        C589   1.386       .  A
C589        C590   1.386       .  A
C589        H593   1.088       .  S
C590        C626   1.424       .  S
C590        C591   1.400       .  A
C591        H594   1.084       .  S
C595        C596   1.206       .  T
C597        C598   1.207       .  T
C599        C600   1.204       .  T
C601        C602   1.204       .  T
C603        C604   1.217       .  T
C605        C606   1.217       .  T
C607        C608   1.216       .  T
C609        C610   1.216       .  T
C611        C612   1.200       .  T
C613        C614   1.200       .  T
C615        C616   1.199       .  T
C617        C618   1.199       .  T
C619        C620   1.200       .  T
C621        C622   1.200       .  T
C623        C838   1.204       .  T
C624        C837   1.204       .  T
C625        C626   1.199       .  T
C627        C628   1.199       .  T
C629        C630   1.204       .  T
C631        C632   1.217       .  T
C633        C634   1.217       .  T
C635        C636   1.206       .  T
C637        C638   1.216       .  T
C639        C640   1.216       .  T
C641        C642   1.207       .  T
O643        C670   1.270       .  A
O643       Mn669   2.097   1_645  S
C644        O674   1.271       .  A
C644        C855   1.436       .  S
O645       Mn663   2.143       .  S
O647        C670   1.260       .  A
O648        C675   1.250       .  A
O648       Mn667   2.087   1_545  S
O649       Mn669   1.952   1_655  S
O649        C665   1.216       .  S
C650        O653   1.257       .  A
C650        C848   1.452       .  S
C650        O676   1.216       .  S
O651       Mn685   2.144       .  S
Mn652       O681   2.130       .  S
Mn652       O657   2.085   1_565  S
Mn652       O658   2.151       .  S
O654        C656   1.271       .  A
O654       Mn661   2.093   1_655  S
C655        O681   1.257       .  A
C655        C854   1.450       .  S
C655        O668   1.215       .  S
C656        C849   1.435       .  S
O657        C682   1.250       .  A
O659        C682   1.220       .  S
C660        O686   1.270       .  A
C660        O662   1.260       .  A
C660        C842   1.424       .  S
Mn661       O676   1.974   1_455  S
O662       Mn685   2.057   1_655  S
Mn663       O679   2.057       .  S
O664        C666   1.270       .  A
C665        O683   1.257       .  A
C665        C846   1.452       .  S
C666        O679   1.260       .  A
C666        C834   1.425       .  S
Mn667       O683   2.131   1_554  S
O668       Mn671   1.952       .  S
C670        C839   1.424       .  S
Mn671       O678   2.098   1_565  S
C672        O678   1.270       .  A
C672        O688   1.260       .  A
C672        C836   1.425       .  S
O673        C675   1.220       .  S
C675        C843   1.432       .  S
O677       Mn680   2.095       .  S
Mn680       O687   1.973       .  S
C682        C838   1.431       .  S
O684        C689   1.257       .  A
O687        C689   1.215       .  S
C689        C852   1.450       .  S
C690        C837   1.436       .  S
C690        C691   1.406   1_554  A
C691        C692   1.400       .  A
C691        H696   1.084       .  S
C692        C831   1.424       .  S
C692        C693   1.386   1_556  A
C693        H697   1.088       .  S
C694        C829   1.424       .  S
C694        C695   1.400       .  A
C695        H698   1.084       .  S
C699        C844   1.437       .  S
C699        C700   1.406   1_554  A
C700        C701   1.401       .  A
C700        H705   1.084       .  S
C701        C827   1.425       .  S
C701        C702   1.386   1_556  A
C702        H706   1.088       .  S
C703        C825   1.425       .  S
C703        C704   1.401       .  A
C704        H707   1.084       .  S
C708        C850   1.440       .  S
C708        C713   1.401       .  A
C709        C710   1.401       .  A
C709        H714   1.085       .  S
C710        C824   1.457       .  S
C711        C712   1.414       .  A
C711        H715   1.084       .  S
C712        C821   1.457       .  S
C712        C713   1.401       .  A
C713        H716   1.085       .  S
C717        C856   1.442       .  S
C717        C722   1.402       .  A
C718        C719   1.402       .  A
C718        H723   1.085       .  S
C719        C820   1.458       .  S
C720        C721   1.415       .  A
C720        H724   1.084       .  S
C721        C818   1.458       .  S
C721        C722   1.402       .  A
C722        H725   1.085       .  S
O726        C753   1.260       .  A
O726       Mn752   2.057       .  S
C727        O760   1.260       .  A
C727        O757   1.270       .  A
C727        C828   1.425       .  S
O728       Mn735   2.168       .  S
O728       Mn746   2.123       .  S
O728       Mn750   2.168       .  S
O728       Mn752   2.144       .  S
O729        C739   1.260       .  A
O729       Mn763   2.057       .  S
O730        C753   1.270       .  A
O730       Mn746   2.098       .  S
O731        C758   1.257       .  A
O731       Mn750   2.132       .  S
O732       Mn763   1.944       .  S
O732       Mn752   1.944       .  S
O732        C748   1.220       .  S
C733        O736   1.257       .  A
C733        C819   1.452       .  S
C733        O759   1.216       .  S
O734       Mn754   2.131       .  S
O734       Mn735   2.151       .  S
O734       Mn768   2.131       .  S
O734       Mn750   2.152       .  S
Mn735       O764   2.130       .  S
Mn735       O740   2.130       .  S
Mn735       O767   2.085       .  S
Mn735       O741   2.168       .  S
O736       Mn750   2.131       .  S
O737        C739   1.270       .  A
O737       Mn744   2.097       .  S
C738        O764   1.257       .  A
C738        C823   1.450       .  S
C738        O751   1.215       .  S
C739        C832   1.424       .  S
O740        C765   1.257       .  A
O741       Mn744   2.123       .  S
O741       Mn763   2.143       .  S
O741       Mn750   2.168       .  S
O742       Mn746   1.952       .  S
O742       Mn768   1.973       .  S
O742        C765   1.215       .  S
C743        O769   1.271       .  A
C743        O745   1.271       .  A
C743        C809   1.435       .  S
Mn744       O757   2.098       .  S
Mn744       O759   1.952       .  S
Mn744       O751   1.952       .  S
O745       Mn768   2.093       .  S
Mn746       O762   2.098       .  S
Mn746       O756   1.953       .  S
O747        C749   1.260       .  A
O747       Mn752   2.057       .  S
C748        O766   1.250       .  A
C748        C814   1.432       .  S
C749        O762   1.270       .  A
C749        C826   1.425       .  S
Mn750       O766   2.087       .  S
O751       Mn754   1.973       .  S
Mn752       O770   1.943       .  S
C753        C830   1.424       .  S
Mn754       O761   2.095       .  S
Mn754       O769   2.093       .  S
Mn754       O759   1.974       .  S
C755        O761   1.271       .  A
C755        O771   1.271       .  A
C755        C811   1.436       .  S
O756       Mn768   1.974       .  S
O756        C758   1.216       .  S
C758        C817   1.452       .  S
O760       Mn763   2.057       .  S
Mn763       O770   1.944       .  S
C765        C822   1.450       .  S
O767        C772   1.250       .  A
Mn768       O771   2.095       .  S
O770        C772   1.220       .  S
C772        C816   1.431       .  S
C773        C813   1.437       .  S
C773        C774   1.406       .  A
C773        C778   1.406       .  A
C774        C775   1.401       .  A
C774        H779   1.084       .  S
C775        C835   1.425       .  S
C775        C776   1.386       .  A
C776        C777   1.386       .  A
C776        H780   1.088       .  S
C777        C833   1.425       .  S
C777        C778   1.401       .  A
C778        H781   1.084       .  S
C782        C812   1.442       .  S
C782        C783   1.402       .  A
C782        C787   1.402       .  A
C783        C784   1.402       .  A
C783        H788   1.085       .  S
C784        C847   1.458       .  S
C784        C785   1.415       .  A
C785        C786   1.415       .  A
C785        H789   1.084       .  S
C786        C845   1.458       .  S
C786        C787   1.402       .  A
C787        H790   1.085       .  S
C791        C810   1.440       .  S
C791        C792   1.401       .  A
C791        C796   1.401       .  A
C792        C793   1.401       .  A
C792        H797   1.085       .  S
C793        C853   1.457       .  S
C793        C794   1.414       .  A
C794        C795   1.414       .  A
C794        H798   1.084       .  S
C795        C851   1.457       .  S
C795        C796   1.401       .  A
C796        H799   1.085       .  S
C800        C815   1.436       .  S
C800        C801   1.406       .  A
C800        C805   1.406       .  A
C801        C802   1.400       .  A
C801        H806   1.084       .  S
C802        C841   1.424       .  S
C802        C803   1.386       .  A
C803        C804   1.386       .  A
C803        H807   1.088       .  S
C804        C840   1.424       .  S
C804        C805   1.400       .  A
C805        H808   1.084       .  S
C809        C810   1.206       .  T
C811        C812   1.207       .  T
C813        C814   1.204       .  T
C815        C816   1.204       .  T
C817        C818   1.217       .  T
C819        C820   1.217       .  T
C821        C822   1.216       .  T
C823        C824   1.216       .  T
C825        C826   1.200       .  T
C827        C828   1.200       .  T
C829        C830   1.199       .  T
C831        C832   1.199       .  T
C833        C834   1.200       .  T
C835        C836   1.200       .  T
C839        C840   1.199       .  T
C841        C842   1.199       .  T
C843        C844   1.204       .  T
C845        C846   1.217       .  T
C847        C848   1.217       .  T
C849        C850   1.206       .  T
C851        C852   1.216       .  T
C853        C854   1.216       .  T
C855        C856   1.207       .  T
