geometry optimzed in LAMMPS
_audit_creation_date              2020-11-30 
_audit_creation_method            'lammps2cif' 
_symmetry_space_group_name_H-M    'P1' 
_symmetry_Int_Tables_number       1 
_symmetry_cell_setting            triclinic 
loop_ 
_symmetry_equiv_pos_as_xyz 
  x,y,z 
_cell_length_a                    44.50246021 
_cell_length_b                    44.814121418430986 
_cell_length_c                    39.6240825083151 
_cell_angle_alpha                 90.1327895283774 
_cell_angle_beta                  89.78591035751056 
_cell_angle_gamma                 125.56451462540545 
loop_ 
_atom_site_label 
_atom_site_type_symbol 
_atom_site_fract_x 
_atom_site_fract_y 
_atom_site_fract_z 
_atom_site_charge 
N1          N  0.18712713  0.10577717  0.43610537    -0.03000
C2          C  0.20256657  0.11861142  0.40510058    -0.00400
C3          C  0.19818181  0.14508412  0.39421127    -0.23200
C4          C  0.17951658  0.14906410  0.41930402    -0.23500
C5          C  0.17284659  0.12467889  0.44454021    -0.00500
H6          H  0.20956932  0.16148948  0.37152729     0.13300
H7          H  0.17459040  0.17000029  0.42042490     0.13400
N8          N  0.14467792  0.14326535  0.48649083    -0.03000
C9          C  0.15611873  0.15874742  0.51756479    -0.00400
C10         C  0.18261355  0.15481568  0.52987947    -0.23200
C11         C  0.18817321  0.13669438  0.50548351    -0.23500
C12         C  0.16468625  0.12990578  0.47920152    -0.00500
H13         H  0.19873874  0.16700216  0.55261840     0.13300
H14         H  0.21013377  0.13302610  0.50524912     0.13400
N15         N  0.10761037  0.12563924  0.47607336    -0.03000
C16         C  0.09269525  0.14350864  0.46673090    -0.00400
C17         C  0.05616910  0.12372060  0.47748724    -0.23200
C18         C  0.04798464  0.09230499  0.49275450    -0.23500
C19         C  0.08000258  0.09431154  0.49120608    -0.00500
H20         H  0.03603689  0.12882651  0.47049837     0.13300
H21         H  0.02101607  0.06938902  0.50107092     0.13400
N22         N  0.11043100  0.04192135  0.41921987    -0.03000
C23         C  0.09068607  0.03019004  0.39029021    -0.00400
C24         C  0.06450161  0.03754352  0.39159442    -0.23200
C25         C  0.06664414  0.05150016  0.42315628    -0.23500
C26         C  0.09448884  0.05284144  0.44013594    -0.00500
H27         H  0.04191912  0.52759696  0.37409299     0.13300
H28         H  0.04619667  0.05454982  0.43386457     0.13400
N29         N  0.08274031  0.06469304  0.49894060    -0.03000
C30         C  0.07179165  0.04451277  0.52754083    -0.00400
C31         C  0.08030164  0.01940436  0.52536508    -0.23200
C32         C  0.09478067  0.02298273  0.49371888    -0.23500
C33         C  0.09510056  0.05049194  0.47752579    -0.00500
H34         H  0.07135228  0.99694989  0.54258378     0.13300
H35         H  0.09922057  0.00384053  0.48248416     0.13400
N36         N  0.17076036  0.06883207  0.44544604    -0.03000
C37         C  0.19034403  0.05562563  0.45463617    -0.00400
C38         C  0.17393740  0.02076459  0.44123817    -0.23200
C39         C  0.14264534  0.01151001  0.42458232    -0.23500
C40         C  0.14138876  0.04133843  0.42795127    -0.00500
H41         H  0.18090563  0.50190443  0.44718621     0.13300
H42         H  0.12180970  0.48490279  0.41413748     0.13400
Fe43       Fe  0.21826329  0.41624233  0.71323539     1.65800
Fe44       Fe  0.30939259  0.49127004  0.71227618     1.73200
Fe45       Fe  0.28769761  0.40521717  0.70683788     1.54400
O46         O  0.24752078  0.36600653  0.73851461    -0.81200
O47         O  0.33907729  0.49263620  0.67133005    -0.79500
O48         O  0.20727473  0.37850271  0.75105433    -0.83700
O49         O  0.20408555  0.37688868  0.67570904    -0.78500
O50         O  0.32288130  0.42887233  0.74739961    -0.80300
O51         O  0.28074681  0.50158400  0.67943264    -0.83000
C52         C  0.22172022  0.36737331  0.65882959     0.97700
C53         C  0.21966598  0.35930208  0.75475572     1.05200
O54         O  0.27173194  0.43764153  0.71087120    -1.12000
O55         O  0.28542846  0.49726988  0.75370669    -0.74400
O56         O  0.22530724  0.45223330  0.75114182    -0.77900
O57         O  0.25478836  0.37926021  0.66548105    -0.78600
C58         C  0.25268655  0.48130581  0.76464373     0.96600
O59         O  0.22297488  0.45130856  0.67558972    -0.76600
O60         O  0.34340646  0.48758696  0.74449260    -0.81800
C61         C  0.34720014  0.47086975  0.66275253     1.00500
C62         C  0.34532128  0.46229227  0.75594624     1.05200
O63         O  0.33062436  0.43886508  0.67477137    -0.77400
C64         C  0.24882192  0.48375097  0.66632467     1.03500
N65         N  0.10218978  0.11886055  0.93925443    -0.03000
C66         C  0.08609901  0.13604408  0.94693335    -0.00400
C67         C  0.05038375  0.11600709  0.93429396    -0.23200
C68         C  0.04408711  0.08536504  0.91878797    -0.23500
C69         C  0.07635505  0.08804990  0.92232031    -0.00500
H70         H  0.02953933  0.12066241  0.93962358     0.13300
H71         H  0.01797265  0.06232266  0.90911228     0.13400
N72         N  0.08002129  0.05871608  0.91635958    -0.03000
C73         C  0.07221643  0.03878896  0.88786649    -0.00400
C74         C  0.08263739  0.01534151  0.89211340    -0.23200
C75         C  0.09433758  0.01918115  0.92490763    -0.23500
C76         C  0.09148826  0.04545612  0.93966190    -0.00500
H77         H  0.07633955  0.99334937  0.87528290     0.13300
H78         H  0.09893441  0.00078724  0.93740260     0.13400
N79         N  0.10200792  0.03788984  0.00019866    -0.03000
C80         C  0.08034389  0.02723161  0.02797813    -0.00400
C81         C  0.05427324  0.03435349  0.02333087    -0.23200
C82         C  0.05846626  0.04695570  0.99086179    -0.23500
C83         C  0.08744154  0.04780987  0.97670810    -0.00500
H84         H  0.03075770  0.52531527  0.03946797     0.13300
H85         H  0.03875767  0.04952330  0.97795321     0.13400
N86         N  0.16439261  0.06379852  0.97924721    -0.03000
C87         C  0.18371686  0.04971704  0.97224430    -0.00400
C88         C  0.16462927  0.01407150  0.98443233    -0.23200
C89         C  0.13224936  0.00550896  0.99835408    -0.23500
C90         C  0.13305990  0.03651296  0.99480450    -0.00500
H91         H  0.17094411  0.99453070  0.97929893     0.13300
H92         H  0.10945964  0.97872864  0.00695627     0.13400
N93         N  0.18056274  0.10105115  0.98724292    -0.03000
C94         C  0.19603522  0.11527175  0.01791163    -0.00400
C95         C  0.19170753  0.14226599  0.02715733    -0.23200
C96         C  0.17308947  0.14510399  0.00137841    -0.23500
C97         C  0.16624654  0.11951326  0.97732661    -0.00500
H98         H  0.20353049  0.16005745  0.04896950     0.13300
H99         H  0.16896083  0.16651000  0.99871623     0.13400
N100        N  0.14023235  0.13722069  0.93205370    -0.03000
C101        C  0.15459256  0.15387518  0.90187795    -0.00400
C102        C  0.18347758  0.15221096  0.89260103    -0.23200
C103        C  0.18743354  0.13409553  0.91805262    -0.23500
C104        C  0.16058120  0.12491355  0.94187279    -0.00500
H105        H  0.20142450  0.16515125  0.87091137     0.13300
H106        H  0.21015446  0.13172541  0.92069055     0.13400
Fe107      Fe  0.46030148  0.17853922  0.20782640     1.65800
Fe108      Fe  0.45028144  0.24871599  0.21234278     1.73200
Fe109      Fe  0.03689467  0.26882914  0.20778448     1.54400
O110        O  0.04572132  0.24146905  0.24344689    -0.81200
O111        O  0.47905874  0.28863764  0.17627281    -0.79500
O112        O  0.49650992  0.18316596  0.24433037    -0.83700
O113        O  0.49486152  0.18466598  0.16869306    -0.78500
O114        O  0.03780342  0.30044321  0.24629593    -0.80300
O115        O  0.41564811  0.21375378  0.17480384    -0.83000
C116        C  0.52557379  0.21096906  0.15635612     0.97700
C117        C  0.52815693  0.20919146  0.25528949     1.05200
O118        O  0.48245940  0.23197951  0.20931862    -1.12000
O119        O  0.41733823  0.21155321  0.24928917    -0.74400
O120        O  0.42203860  0.16477298  0.24615473    -0.77900
O121        O  0.04359148  0.24308942  0.16849322    -0.78600
C122        C  0.40823994  0.18037484  0.25888973     0.96600
O123        O  0.42084895  0.16722000  0.17180142    -0.76600
O124        O  0.48090131  0.28612155  0.24985938    -0.81800
C125        C  0.51152495  0.30715818  0.16419907     0.99300
C126        C  0.01443074  0.30484523  0.25900298     1.05200
O127        O  0.03537990  0.30162193  0.17249479    -0.77400
C128        C  0.40639122  0.18337671  0.16242865     1.03500
C129        C  0.34311736  0.17308470  0.09276924    -0.10300
C130        C  0.31459999  0.13544614  0.09403509     0.06800
C131        C  0.31765849  0.11298959  0.11629113    -0.09100
C132        C  0.34875357  0.12815246  0.13719773    -0.10700
C133        C  0.37661015  0.16613410  0.13684347    -0.00500
C134        C  0.37356781  0.18834071  0.11421079    -0.09600
C135        C  0.28073544  0.12095758  0.07395037     0.06800
H136        H  0.29576329  0.08394631  0.11784308     0.08800
H137        H  0.35015081  0.11053838  0.15479991     0.12200
H138        H  0.39448714  0.21769759  0.11356987     0.12500
H139        H  0.34107804  0.19092959  0.07605430     0.08800
C140        C  0.24799139  0.11089600  0.09016849    -0.10300
C141        C  0.21860453  0.10558559  0.07144186    -0.09600
C142        C  0.22121942  0.10950597  0.03616679    -0.00500
C143        C  0.25278789  0.11662363  0.01975930    -0.10700
C144        C  0.28249603  0.12268229  0.03854269    -0.09100
H145        H  0.24624896  0.10987741  0.11747452     0.08800
H146        H  0.19476357  0.10070438  0.08462198     0.12500
H147        H  0.25582312  0.12072594  0.99268594     0.12200
H148        H  0.30766452  0.13077885  0.02560290     0.08800
C149        C  0.03017310  0.43113573  0.06044180    -0.10300
C150        C  0.05507577  0.43367587  0.08388810     0.06800
C151        C  0.08903676  0.46787115  0.08931710    -0.09100
C152        C  0.09745439  0.49910719  0.07191057    -0.10700
C153        C  0.07193118  0.49625992  0.04905826    -0.00500
C154        C  0.03845178  0.46205360  0.04335338    -0.09600
C155        C  0.04430507  0.40070744  0.10336783     0.06800
H156        H  0.10866633  0.47051113  0.10735764     0.08800
H157        H  0.12376340  0.52523955  0.07598912     0.12200
H158        H  0.01889914  0.45910185  0.02498744     0.12500
H159        H  0.00424327  0.40506750  0.05514230     0.08800
C160        C  0.00814892  0.37754122  0.11600342    -0.10300
C161        C  0.99723155  0.34638145  0.13443589    -0.09600
C162        C  0.02228844  0.33768011  0.14100446    -0.00500
C163        C  0.05841283  0.36052748  0.12793388    -0.10700
C164        C  0.06934455  0.39184044  0.10927236    -0.09100
H165        H  0.98839182  0.38396004  0.11225892     0.08800
H166        H  0.46936788  0.32974273  0.14440448     0.12500
H167        H  0.07842380  0.35464856  0.13269288     0.12200
H168        H  0.09725846  0.40906472  0.09946462     0.08800
C169        C  0.04230529  0.16208984  0.08851823    -0.10300
C170        C  0.07083358  0.19156241  0.06936897     0.06800
C171        C  0.08447856  0.22748972  0.07905798    -0.09100
C172        C  0.07005631  0.23377134  0.10749199    -0.10700
C173        C  0.04122099  0.20421983  0.12650137    -0.00500
C174        C  0.52752338  0.16833029  0.11662896    -0.09600
C175        C  0.08448621  0.18420735  0.03840902     0.06800
H176        H  0.10633959  0.25066201  0.06469604     0.08800
H177        H  0.08117337  0.26180160  0.11431519     0.12200
H178        H  0.50539393  0.14499002  0.13064563     0.12500
H179        H  0.53081426  0.13408117  0.08130114     0.08800
C180        C  0.08630651  0.20058749  0.00751002    -0.10300
C181        C  0.09109087  0.18759962  0.97720765    -0.09600
C182        C  0.09492158  0.15864195  0.97745099    -0.00500
C183        C  0.09654795  0.14471371  0.00853570    -0.10700
C184        C  0.09134125  0.15731758  0.03872451    -0.09100
H185        H  0.08095159  0.22125329  0.00652459     0.08800
H186        H  0.08893252  0.19815671  0.95346905     0.12500
H187        H  0.09844209  0.12172152  0.00938227     0.12200
H188        H  0.09044657  0.14449067  0.06219557     0.08800
C189        C  0.19273030  0.27016048  0.79419415    -0.10300
C190        C  0.16882371  0.26472438  0.82047416     0.06800
C191        C  0.16149010  0.29106566  0.82551416    -0.09100
C192        C  0.17733445  0.32183616  0.80407191    -0.10700
C193        C  0.20138878  0.32705806  0.77782368    -0.00500
C194        C  0.20874112  0.30072807  0.77333197    -0.09600
C195        C  0.15384244  0.23233503  0.84293667     0.06800
H196        H  0.14337949  0.28770025  0.84579795     0.08800
H197        H  0.17123918  0.34167795  0.80827716     0.12200
H198        H  0.22699470  0.30359304  0.75340981     0.12500
H199        H  0.19973301  0.25098196  0.79009375     0.08800
C200        C  0.14206189  0.19830228  0.82881058    -0.10300
C201        C  0.13842322  0.17077733  0.84885722    -0.09600
C202        C  0.14563380  0.17638731  0.88351100    -0.00500
C203        C  0.15311527  0.20853791  0.89839546    -0.10700
C204        C  0.15727890  0.23643777  0.87820607    -0.09100
H205        H  0.13853523  0.19409496  0.80178599     0.08800
H206        H  0.13274922  0.14621339  0.83691527     0.12500
H207        H  0.15925997  0.21353736  0.92507501     0.12200
H208        H  0.16641687  0.26233595  0.88980287     0.08800
C209        C  0.01010143  0.04207783  0.82518905    -0.10300
C210        C  0.47687386  0.00698357  0.82995366     0.06800
C211        C  0.47630582  0.98275795  0.85274506    -0.09100
C212        C  0.00787710  0.99320127  0.87040750    -0.10700
C213        C  0.04081051  0.02823815  0.86603127    -0.00500
C214        C  0.04191222  0.05273987  0.84330744    -0.09600
C215        C  0.44249456  0.99541789  0.81195426     0.06800
H216        H  0.45108494  0.45595131  0.85775533     0.08800
H217        H  0.00627353  0.97418667  0.88847565     0.12200
H218        H  0.06705295  0.08001973  0.83997104     0.12500
H219        H  0.01150489  0.06125621  0.80753513     0.08800
C220        C  0.43365489  0.02037139  0.80613213    -0.10300
C221        C  0.40113949  0.00920086  0.78932120    -0.09600
C222        C  0.37665017  0.47276330  0.77814203    -0.00500
C223        C  0.38502170  0.44759670  0.78476867    -0.10700
C224        C  0.41765278  0.45883822  0.80124152    -0.09100
H225        H  0.45177886  0.04850975  0.81466989     0.08800
H226        H  0.39554014  0.02930731  0.78451616     0.12500
H227        H  0.36709632  0.41949928  0.77605592     0.12200
H228        H  0.42382860  0.43899885  0.80483462     0.08800
C229        C  0.20538142  0.50161348  0.83156606    -0.10300
C230        C  0.23563892  0.52992179  0.85013746     0.06800
C231        C  0.27141349  0.54204655  0.84043744    -0.09100
C232        C  0.27685163  0.52632717  0.81266483    -0.10700
C233        C  0.24658400  0.49772920  0.79419670    -0.00500
C234        C  0.21076638  0.48555736  0.80402878    -0.09600
C235        C  0.22942092  0.04489554  0.88074281     0.06800
H236        H  0.29517117  0.06376514  0.85431321     0.08800
H237        H  0.30484514  0.53640996  0.80585838     0.12200
H238        H  0.18687114  0.46368527  0.79039360     0.12500
H239        H  0.17743921  0.49129554  0.83885510     0.08800
C240        C  0.20345631  0.05318805  0.88042145    -0.10300
C241        C  0.19222602  0.06022562  0.91057286    -0.09600
C242        C  0.20648756  0.05882560  0.94160250    -0.00500
C243        C  0.23486588  0.05385167  0.94163235    -0.10700
C244        C  0.24641089  0.04715721  0.91142066    -0.09100
H245        H  0.19022912  0.05202027  0.85709281     0.08800
H246        H  0.16961596  0.06294508  0.90984778     0.12500
H247        H  0.24565949  0.05182164  0.96530411     0.12200
H248        H  0.26640910  0.54073538  0.91243198     0.08800
C249        C  0.24842564  0.05419524  0.52169866    -0.10300
C250        C  0.22720314  0.04847133  0.55061252     0.06800
C251        C  0.19897291  0.55355869  0.54813261    -0.09100
C252        C  0.19026795  0.56128144  0.51693598    -0.10700
C253        C  0.20921005  0.06354935  0.48751942    -0.00500
C254        C  0.23931172  0.06137388  0.49041169    -0.09600
C255        C  0.23238584  0.53398909  0.58217430     0.06800
H256        H  0.18247177  0.54981882  0.57003917     0.08800
H257        H  0.16656427  0.56215855  0.51538385     0.12200
H258        H  0.25375779  0.06214058  0.46799300     0.12500
H259        H  0.27023839  0.05029693  0.52272748     0.08800
C260        C  0.26798639  0.54810357  0.59398690    -0.10300
C261        C  0.27300479  0.53235268  0.62183776    -0.09600
C262        C  0.24255804  0.50167722  0.63838363    -0.00500
C263        C  0.20683656  0.48797279  0.62702752    -0.10700
C264        C  0.20180303  0.50412218  0.59935900    -0.09100
H265        H  0.29204534  0.07116431  0.58142427     0.08800
H266        H  0.30095088  0.54366703  0.62980952     0.12500
H267        H  0.18282907  0.46449132  0.63921336     0.12200
H268        H  0.17401258  0.49235964  0.59059966     0.08800
C269        C  0.41697132  0.46929264  0.61026018    -0.10300
C270        C  0.44284248  0.00650242  0.60233435     0.06800
C271        C  0.43599461  0.03201465  0.61289730    -0.09100
C272        C  0.40399090  0.02043931  0.63130529    -0.10700
C273        C  0.37840116  0.48318004  0.63946517    -0.00500
C274        C  0.38512206  0.45776836  0.62832811    -0.09600
C275        C  0.47646117  0.01795309  0.58283870     0.06800
H276        H  0.45529530  0.06084150  0.60686987     0.08800
H277        H  0.39977582  0.04071256  0.63987069     0.12200
H278        H  0.36622224  0.42889501  0.63436744     0.12500
H279        H  0.42168871  0.44899845  0.60313079     0.08800
C280        C  0.01123425  0.05049481  0.59048406    -0.10300
C281        C  0.04285668  0.05967667  0.57267529    -0.09600
C282        C  0.03989640  0.03618395  0.54744474    -0.00500
C283        C  0.00526759  0.00421417  0.53948274    -0.10700
C284        C  0.47388927  0.99532207  0.55675506    -0.09100
H285        H  0.01405286  0.06839174  0.61055149     0.08800
H286        H  0.06946096  0.08473434  0.57867237     0.12500
H287        H  0.00248832  0.98627020  0.51943582     0.12200
H288        H  0.44750461  0.97070785  0.54954017     0.08800
C289        C  0.07691330  0.39293308  0.30819126    -0.10300
C290        C  0.05121583  0.39841902  0.32166135     0.06800
C291        C  0.01331533  0.37101581  0.31701034    -0.09100
C292        C  0.00140847  0.33953052  0.29846848    -0.10700
C293        C  0.02706039  0.33473147  0.28371291    -0.00500
C294        C  0.06495976  0.36138030  0.28941083    -0.09600
C295        C  0.06338386  0.43271999  0.33990221     0.06800
H296        H  0.99270715  0.37447612  0.32655856     0.08800
H297        H  0.97202764  0.31965968  0.29452102     0.12200
H298        H  0.08545585  0.35856238  0.27831122     0.12500
H299        H  0.10626120  0.41320508  0.31183006     0.08800
C300        C  0.04259161  0.43123260  0.36741951    -0.10300
C301        C  0.05183640  0.46323374  0.38320942    -0.09600
C302        C  0.08232915  0.49749382  0.37223482    -0.00500
C303        C  0.10412784  0.49946465  0.34556143    -0.10700
C304        C  0.09459138  0.46718480  0.32933508    -0.09100
H305        H  0.01910743  0.40526376  0.37686784     0.08800
H306        H  0.03522875  0.46129588  0.40433741     0.12500
H307        H  0.12802010  0.02575355  0.33717905     0.12200
H308        H  0.11104536  0.46927628  0.30804999     0.08800
C309        C  0.09086679  0.22648929  0.32894737    -0.10300
C310        C  0.07616036  0.19082570  0.34022314     0.06800
C311        C  0.04647391  0.16093367  0.32238560    -0.09100
C312        C  0.53107601  0.16665663  0.29450560    -0.10700
C313        C  0.04538868  0.20242955  0.28359445    -0.00500
C314        C  0.07587444  0.23223041  0.30086074    -0.09600
C315        C  0.08975133  0.18469667  0.37186059     0.06800
H316        H  0.53424527  0.13310076  0.33074860     0.08800
H317        H  0.50771359  0.14311831  0.28178534     0.12200
H318        H  0.08762943  0.26017007  0.29323232     0.12500
H319        H  0.11379249  0.25000407  0.34211277     0.08800
C320        C  0.09511829  0.15681492  0.37371922    -0.10300
C321        C  0.10156074  0.14682942  0.40481370    -0.09600
C322        C  0.10206981  0.16400274  0.43473176    -0.00500
C323        C  0.09960464  0.19375577  0.43260733    -0.10700
C324        C  0.09392156  0.20431152  0.40137353    -0.09100
H325        H  0.09253723  0.14155615  0.35134980     0.08800
H326        H  0.10280118  0.12347162  0.40578697     0.12500
H327        H  0.09902683  0.20681404  0.45540459     0.12200
H328        H  0.08977700  0.22583789  0.40073365     0.08800
C329        C  0.14476338  0.21244363  0.58322120    -0.10300
C330        C  0.16027893  0.24607178  0.56645477     0.06800
C331        C  0.16809688  0.24803588  0.53174282    -0.09100
C332        C  0.16277296  0.21780878  0.51478179    -0.10700
C333        C  0.15020927  0.18532620  0.53232788    -0.00500
C334        C  0.14025559  0.18252618  0.56642462    -0.09600
C335        C  0.17311217  0.27989427  0.58618420     0.06800
H336        H  0.17995896  0.27349562  0.51813385     0.08800
H337        H  0.17125484  0.22078260  0.48861257     0.12200
H338        H  0.13112425  0.15794085  0.58054416     0.12500
H339        H  0.13885529  0.21015573  0.61001496     0.08800
C340        C  0.15118623  0.27990305  0.61189798    -0.10300
C341        C  0.16598984  0.30986703  0.63401988    -0.09600
C342        C  0.20321995  0.33997268  0.63126210    -0.00500
C343        C  0.22440422  0.34078767  0.60439235    -0.10700
C344        C  0.20946620  0.31128210  0.58198472    -0.09100
H345        H  0.12304440  0.25614226  0.61565721     0.08800
H346        H  0.14911415  0.30836158  0.65463705     0.12500
H347        H  0.25317400  0.36361923  0.60163135     0.12200
H348        H  0.22720535  0.31204716  0.56269623     0.08800
C349        C  0.35013037  0.16677580  0.33471568    -0.10300
C350        C  0.31817033  0.13119115  0.32938328     0.06800
C351        C  0.31764075  0.11036429  0.30246699    -0.09100
C352        C  0.34828907  0.12532927  0.28083293    -0.10700
C353        C  0.37939370  0.16166324  0.28526130    -0.00500
C354        C  0.38018512  0.18199298  0.31266412    -0.09600
C355        C  0.28461301  0.11819087  0.34982662     0.06800
H356        H  0.29321407  0.08298134  0.29770548     0.08800
H357        H  0.34680442  0.10937388  0.25949456     0.12200
H358        H  0.40367644  0.21017367  0.31635795     0.12500
H359        H  0.35105869  0.18362593  0.35491760     0.08800
C360        C  0.28694529  0.12183509  0.38515711    -0.10300
C361        C  0.25810238  0.11798391  0.40382497    -0.09600
C362        C  0.22673450  0.11099186  0.38740843    -0.00500
C363        C  0.22319551  0.10471737  0.35243504    -0.10700
C364        C  0.25173510  0.10786220  0.33382651    -0.09100
H365        H  0.31201999  0.12982723  0.39804767     0.08800
H366        H  0.26170647  0.12360907  0.43067102     0.12500
H367        H  0.19937631  0.09968894  0.33927344     0.12200
H368        H  0.24936596  0.10523874  0.30661456     0.08800
N369        N  0.18713335  0.60577859  0.43609404    -0.03000
C370        C  0.20258161  0.61861729  0.40509295    -0.00400
C371        C  0.19819433  0.64508754  0.39419995    -0.23200
C372        C  0.17951814  0.64906050  0.41928765    -0.23500
C373        C  0.17284621  0.62467528  0.44452462    -0.00500
H374        H  0.20958476  0.66149329  0.37152050     0.13300
H375        H  0.17458725  0.66999360  0.42040505     0.13400
N376        N  0.14467428  0.64325900  0.48647607    -0.03000
C377        C  0.15611962  0.65874859  0.51754700    -0.00400
C378        C  0.18262127  0.65482595  0.52985924    -0.23200
C379        C  0.18818015  0.63670233  0.50546512    -0.23500
C380        C  0.16468659  0.62990394  0.47918601    -0.00500
H381        H  0.19875084  0.66701962  0.55259418     0.13300
H382        H  0.21014365  0.63303943  0.50522918     0.13400
N383        N  0.10760427  0.62562588  0.47606417    -0.03000
C384        C  0.09268375  0.64348991  0.46672215    -0.00400
C385        C  0.05615859  0.62369923  0.47748065    -0.23200
C386        C  0.04797984  0.59228673  0.49275057    -0.23500
C387        C  0.08000088  0.59429845  0.49120050    -0.00500
H388        H  0.03602281  0.62880040  0.47049217     0.13300
H389        H  0.02101625  0.56937226  0.50106755     0.13400
N390        N  0.11043591  0.54191756  0.41921047    -0.03000
C391        C  0.09069045  0.53018602  0.39028043    -0.00400
C392        C  0.06449995  0.53753064  0.39158934    -0.23200
C393        C  0.06663900  0.55148195  0.42315234    -0.23500
C394        C  0.09448912  0.55283051  0.44012948    -0.00500
H395        H  0.04192654  0.02761445  0.37410132     0.13300
H396        H  0.04618768  0.55452561  0.43386388     0.13400
N397        N  0.08274307  0.56468275  0.49893516    -0.03000
C398        C  0.07179450  0.54450222  0.52753531    -0.00400
C399        C  0.08030584  0.51939481  0.52535915    -0.23200
C400        C  0.09478685  0.52297518  0.49371271    -0.23500
C401        C  0.09510488  0.55048343  0.47751979    -0.00500
H402        H  0.07135727  0.49694170  0.54257581     0.13300
H403        H  0.09922841  0.50383516  0.48247818     0.13400
N404        N  0.17076816  0.56883366  0.44543348    -0.03000
C405        C  0.19035409  0.55562945  0.45462244    -0.00400
C406        C  0.17395141  0.52077059  0.44122109    -0.23200
C407        C  0.14265833  0.51151393  0.42456627    -0.23500
C408        C  0.14139718  0.54133926  0.42793861    -0.00500
H409        H  0.18088888  0.00189805  0.44720469     0.13300
H410        H  0.12179551  0.98489918  0.41415434     0.13400
Fe411      Fe  0.21826817  0.91623720  0.71323890     1.65800
Fe412      Fe  0.30939846  0.99126854  0.71228423     1.73200
Fe413      Fe  0.28770723  0.90521489  0.70684163     1.54400
O414        O  0.24754601  0.86601770  0.73853674    -0.81200
O415        O  0.33909711  0.99263903  0.67134735    -0.79500
O416        O  0.20727806  0.87849235  0.75105282    -0.83700
O417        O  0.20408992  0.87688929  0.67570587    -0.78500
O418        O  0.32290903  0.92888216  0.74738991    -0.80300
O419        O  0.28075864  0.00157885  0.67943031    -0.83000
C420        C  0.22172089  0.86736396  0.65883531     0.97700
C421        C  0.21968398  0.85930629  0.75476942     1.05200
O422        O  0.27173896  0.93763836  0.71087608    -1.12000
O423        O  0.28542452  0.99726938  0.75370688    -0.74400
O424        O  0.22530730  0.95222003  0.75115157    -0.77900
O425        O  0.25478336  0.87923948  0.66549719    -0.78600
C426        C  0.25268337  0.98129850  0.76464852     0.96600
O427        O  0.22298145  0.95130967  0.67559880    -0.76600
O428        O  0.34340606  0.98758972  0.74451144    -0.81800
C429        C  0.34720359  0.97086446  0.66275063     1.00500
C430        C  0.34533457  0.96229915  0.75595107     1.05200
O431        O  0.33061753  0.93885316  0.67475633    -0.77400
C432        C  0.24883157  0.98374871  0.66632757     1.03500
N433        N  0.10220836  0.61887803  0.93927829    -0.03000
C434        C  0.08612239  0.63606634  0.94695672    -0.00400
C435        C  0.05041058  0.61603925  0.93430861    -0.23200
C436        C  0.04411128  0.58539818  0.91879784    -0.23500
C437        C  0.07637335  0.58807362  0.92233637    -0.00500
H438        H  0.02957165  0.62070004  0.93963349     0.13300
H439        H  0.01799631  0.56236126  0.90911309     0.13400
N440        N  0.08003562  0.55873855  0.91636742    -0.03000
C441        C  0.07224330  0.53882688  0.88786590    -0.00400
C442        C  0.08267311  0.51538526  0.89210287    -0.23200
C443        C  0.09436445  0.51921107  0.92489912    -0.23500
C444        C  0.09150270  0.54547359  0.93966395    -0.00500
H445        H  0.07638605  0.49340437  0.87526452     0.13300
H446        H  0.09896529  0.50081756  0.93738504     0.13400
N447        N  0.10200924  0.53788206  0.00019848    -0.03000
C448        C  0.08034342  0.52722301  0.02797692    -0.00400
C449        C  0.05428091  0.53435625  0.02333330    -0.23200
C450        C  0.05848002  0.54696682  0.99086686    -0.23500
C451        C  0.08745079  0.54781425  0.97671131    -0.00500
H452        H  0.03074810  0.02530851  0.03946629     0.13300
H453        H  0.03877809  0.54954537  0.97796139     0.13400
N454        N  0.16439679  0.56378918  0.97925371    -0.03000
C455        C  0.18371968  0.54970546  0.97225241    -0.00400
C456        C  0.16462795  0.51405857  0.98443738    -0.23200
C457        C  0.13224585  0.50549619  0.99835374    -0.23500
C458        C  0.13305973  0.53650225  0.99480488    -0.00500
H459        H  0.17094181  0.49451629  0.97930444     0.13300
H460        H  0.10945470  0.47871690  0.00695207     0.13400
N461        N  0.18056906  0.60104093  0.98725618    -0.03000
C462        C  0.19604093  0.61525480  0.01792665    -0.00400
C463        C  0.19171284  0.64224675  0.02718042    -0.23200
C464        C  0.17309549  0.64509089  0.00140516    -0.23500
C465        C  0.16625428  0.61950648  0.97734677    -0.00500
H466        H  0.20353529  0.66003378  0.04899717     0.13300
H467        H  0.16896654  0.66649682  0.99874969     0.13400
N468        N  0.14025116  0.63723366  0.93208016    -0.03000
C469        C  0.15461380  0.65388941  0.90190535    -0.00400
C470        C  0.18349180  0.65221576  0.89262463    -0.23200
C471        C  0.18744240  0.63409440  0.91807296    -0.23500
C472        C  0.16059324  0.62491731  0.94189493    -0.00500
H473        H  0.20143922  0.66515477  0.87093197     0.13300
H474        H  0.21016058  0.63171677  0.92070848     0.13400
Fe475      Fe  0.46031720  0.67852690  0.20782274     1.65800
Fe476      Fe  0.45028480  0.74869577  0.21233377     1.73200
Fe477      Fe  0.03688697  0.76883688  0.20780359     1.54400
O478        O  0.04570255  0.74146254  0.24345719    -0.81200
O479        O  0.47905186  0.78861280  0.17625833    -0.79500
O480        O  0.49653700  0.68316754  0.24432247    -0.83700
O481        O  0.49487089  0.68465235  0.16868374    -0.78500
O482        O  0.03779363  0.80043973  0.24632548    -0.80300
O483        O  0.41565118  0.71372676  0.17479966    -0.83000
C484        C  0.52558151  0.71095519  0.15634417     0.97700
C485        C  0.52818202  0.70919845  0.25528118     1.05200
O486        O  0.48246843  0.73196606  0.20930867    -1.12000
O487        O  0.41734973  0.71153557  0.24928483    -0.74400
O488        O  0.42205901  0.66476069  0.24615731    -0.77900
O489        O  0.04358306  0.74310331  0.16850565    -0.78600
C490        C  0.40825764  0.68036083  0.25889083     0.96600
O491        O  0.42085685  0.66719614  0.17180157    -0.76600
O492        O  0.48090618  0.78610985  0.24984447    -0.81800
C493        C  0.51151354  0.80712975  0.16417452     0.99300
C494        C  0.01442184  0.80484460  0.25902958     1.05200
O495        O  0.03538734  0.80164667  0.17252382    -0.77400
C496        C  0.40639680  0.68334990  0.16242644     1.03500
C497        C  0.34311323  0.67305551  0.09277725    -0.10300
C498        C  0.31460578  0.63541401  0.09403295     0.06800
C499        C  0.31767587  0.61295659  0.11627682    -0.09100
C500        C  0.34877114  0.62812094  0.13718310    -0.10700
C501        C  0.37661690  0.66610569  0.13683984    -0.00500
C502        C  0.37356459  0.68831370  0.11421732    -0.09600
C503        C  0.28073882  0.62092412  0.07395263     0.06800
H504        H  0.29578475  0.58390584  0.11782128     0.08800
H505        H  0.35017685  0.61050708  0.15477605     0.12200
H506        H  0.39447401  0.71766958  0.11358435     0.12500
H507        H  0.34106520  0.69090313  0.07606966     0.08800
C508        C  0.24800037  0.61087126  0.09017558    -0.10300
C509        C  0.21861285  0.60556540  0.07145256    -0.09600
C510        C  0.22122370  0.60948363  0.03617693    -0.00500
C511        C  0.25278639  0.61659298  0.01976578    -0.10700
C512        C  0.28249491  0.62264581  0.03854457    -0.09100
H513        H  0.24626269  0.60985684  0.11747773     0.08800
H514        H  0.19478052  0.60069111  0.08463398     0.12500
H515        H  0.25581955  0.62069525  0.99268955     0.12200
H516        H  0.30765652  0.63073595  0.02560401     0.08800
C517        C  0.03019888  0.93115297  0.06045688    -0.10300
C518        C  0.05510555  0.93370433  0.08390473     0.06800
C519        C  0.08906358  0.96790337  0.08932749    -0.09100
C520        C  0.09747259  0.99913401  0.07191615    -0.10700
C521        C  0.07194250  0.99627546  0.04906446    -0.00500
C522        C  0.03846767  0.96206394  0.04336297    -0.09600
C523        C  0.04433658  0.90074419  0.10339617     0.06800
H524        H  0.10869840  0.97055143  0.10737040     0.08800
H525        H  0.12377592  0.02526759  0.07599024     0.12200
H526        H  0.01891318  0.95910396  0.02499803     0.12500
H527        H  0.00426774  0.90507780  0.05516238     0.08800
C528        C  0.00818672  0.87759531  0.11604829    -0.10300
C529        C  0.99726300  0.84643482  0.13448237    -0.09600
C530        C  0.02230901  0.83771602  0.14103573    -0.00500
C531        C  0.05842972  0.86054958  0.12795372    -0.10700
C532        C  0.06936727  0.89186404  0.10929051    -0.09100
H533        H  0.98843655  0.88402591  0.11231144     0.08800
H534        H  0.46933118  0.82967623  0.14434809     0.12500
H535        H  0.07843080  0.85465757  0.13270215     0.12200
H536        H  0.09727660  0.90907665  0.09947136     0.08800
C537        C  0.04231543  0.66210263  0.08854628    -0.10300
C538        C  0.07084025  0.69157443  0.06939359     0.06800
C539        C  0.08447711  0.72750135  0.07907602    -0.09100
C540        C  0.07005017  0.73378441  0.10750562    -0.10700
C541        C  0.04121757  0.70423312  0.12651731    -0.00500
C542        C  0.52751864  0.66831705  0.11660515    -0.09600
C543        C  0.08449568  0.68421847  0.03843564     0.06800
H544        H  0.10633648  0.75067435  0.06471192     0.08800
H545        H  0.08115984  0.76181106  0.11432261     0.12200
H546        H  0.50538448  0.64497434  0.13062042     0.12500
H547        H  0.53079885  0.63406694  0.08126728     0.08800
C548        C  0.08632744  0.70060610  0.00753723    -0.10300
C549        C  0.09111711  0.68762148  0.97723491    -0.09600
C550        C  0.09494130  0.65865972  0.97747768    -0.00500
C551        C  0.09655660  0.64472325  0.00856237    -0.10700
C552        C  0.09134455  0.65732460  0.03875068    -0.09100
H553        H  0.08097779  0.72127327  0.00655083     0.08800
H554        H  0.08896803  0.69818454  0.95349830     0.12500
H555        H  0.09844615  0.62173239  0.00940784     0.12200
H556        H  0.09044279  0.64449131  0.06222323     0.08800
C557        C  0.19276220  0.77017869  0.79422561    -0.10300
C558        C  0.16885737  0.76474556  0.82050587     0.06800
C559        C  0.16152382  0.79108731  0.82554250    -0.09100
C560        C  0.17736360  0.82185255  0.80409532    -0.10700
C561        C  0.20141390  0.82706965  0.77784516    -0.00500
C562        C  0.20876913  0.80074107  0.77335831    -0.09600
C563        C  0.15387395  0.73235664  0.84296854     0.06800
H564        H  0.14341250  0.78772400  0.84582999     0.08800
H565        H  0.17126737  0.84169683  0.80829737     0.12200
H566        H  0.22702057  0.80360362  0.75343512     0.12500
H567        H  0.19976627  0.75099656  0.79012726     0.08800
C568        C  0.14208805  0.69832251  0.82884144    -0.10300
C569        C  0.13844662  0.67079613  0.84888722    -0.09600
C570        C  0.14565953  0.67640538  0.88354014    -0.00500
C571        C  0.15314641  0.70855774  0.89842607    -0.10700
C572        C  0.15731319  0.73645979  0.87823766    -0.09100
H573        H  0.13855989  0.69411590  0.80181810     0.08800
H574        H  0.13276760  0.64622816  0.83694346     0.12500
H575        H  0.15929274  0.71355620  0.92510396     0.12200
H576        H  0.16645467  0.76235802  0.88983456     0.08800
C577        C  0.01011729  0.54210547  0.82519334    -0.10300
C578        C  0.47685275  0.50696208  0.82995376     0.06800
C579        C  0.47627634  0.48273526  0.85275056    -0.09100
C580        C  0.00790781  0.49322920  0.87040229    -0.10700
C581        C  0.04083551  0.52827264  0.86603164    -0.00500
C582        C  0.04192946  0.55277318  0.84331304    -0.09600
C583        C  0.44247622  0.49540068  0.81195243     0.06800
H584        H  0.45111612  0.95596691  0.85774781     0.08800
H585        H  0.00631065  0.47421690  0.88846391     0.12200
H586        H  0.06706662  0.58005886  0.83998013     0.12500
H587        H  0.01151535  0.56128007  0.80754651     0.08800
C588        C  0.43363951  0.52035695  0.80613244    -0.10300
C589        C  0.40112592  0.50918947  0.78931968    -0.09600
C590        C  0.37666409  0.97277296  0.77814739    -0.00500
C591        C  0.38503736  0.94760828  0.78477688    -0.10700
C592        C  0.41767083  0.95885356  0.80124747    -0.09100
H593        H  0.45176388  0.54849255  0.81467257     0.08800
H594        H  0.39552718  0.52929913  0.78451654     0.12500
H595        H  0.36711245  0.91951051  0.77606820     0.12200
H596        H  0.42384786  0.93901530  0.80484120     0.08800
C597        C  0.20537135  0.00159448  0.83157518    -0.10300
C598        C  0.23562856  0.02991934  0.85013409     0.06800
C599        C  0.27140472  0.04205712  0.84042614    -0.09100
C600        C  0.27684522  0.02633551  0.81265716    -0.10700
C601        C  0.24657825  0.99772206  0.79420037    -0.00500
C602        C  0.21075785  0.98553518  0.80404108    -0.09600
C603        C  0.22943170  0.54489365  0.88075028     0.06800
H604        H  0.29517814  0.56374033  0.85433234     0.08800
H605        H  0.30483953  0.03642922  0.80584390     0.12200
H606        H  0.18686705  0.96365466  0.79041749     0.12500
H607        H  0.17742749  0.99126603  0.83887076     0.08800
C608        C  0.20347482  0.55319611  0.88043014    -0.10300
C609        C  0.19224206  0.56022859  0.91058306    -0.09600
C610        C  0.20649446  0.55881511  0.94161291    -0.00500
C611        C  0.23486573  0.55383112  0.94164239    -0.10700
C612        C  0.24641303  0.54714062  0.91142949    -0.09100
H613        H  0.19025521  0.55204002  0.85710234     0.08800
H614        H  0.16963841  0.56295545  0.90985738     0.12500
H615        H  0.24565272  0.55179058  0.96531454     0.12200
H616        H  0.26641495  0.04075891  0.91242392     0.08800
C617        C  0.24842061  0.55418782  0.52169332    -0.10300
C618        C  0.22719857  0.54847067  0.55060505     0.06800
C619        C  0.19897331  0.05355303  0.54814413    -0.09100
C620        C  0.19026231  0.06127437  0.51695005    -0.10700
C621        C  0.20921541  0.56355029  0.48750776    -0.00500
C622        C  0.23931236  0.56136756  0.49040432    -0.09600
C623        C  0.23239393  0.03398730  0.58217833     0.06800
H624        H  0.18247035  0.04980811  0.57005478     0.08800
H625        H  0.16655690  0.06214540  0.51540091     0.12200
H626        H  0.25375816  0.56212998  0.46798774     0.12500
H627        H  0.27023202  0.55028432  0.52272577     0.08800
C628        C  0.26799435  0.04810202  0.59399003    -0.10300
C629        C  0.27301404  0.03235093  0.62184006    -0.09600
C630        C  0.24256729  0.00167409  0.63838601    -0.00500
C631        C  0.20684658  0.98796902  0.62702948    -0.10700
C632        C  0.20181099  0.00411770  0.59936188    -0.09100
H633        H  0.29203650  0.57116282  0.58142124     0.08800
H634        H  0.30095949  0.04366609  0.62981179     0.12500
H635        H  0.18283537  0.96448301  0.63921638     0.12200
H636        H  0.17402537  0.99235664  0.59060412     0.08800
C637        C  0.41694768  0.96927600  0.61022161    -0.10300
C638        C  0.44284706  0.50651469  0.60234765     0.06800
C639        C  0.43598163  0.53202119  0.61288636    -0.09100
C640        C  0.40397567  0.52044201  0.63129275    -0.10700
C641        C  0.37839949  0.98317346  0.63945619    -0.00500
C642        C  0.38510041  0.95775548  0.62829209    -0.09600
C643        C  0.47646282  0.51796640  0.58284781     0.06800
H644        H  0.45526588  0.56084070  0.60684081     0.08800
H645        H  0.39974497  0.54071090  0.63983761     0.12200
H646        H  0.36618530  0.92887667  0.63431388     0.12500
H647        H  0.42164967  0.94897679  0.60307263     0.08800
C648        C  0.01123685  0.55046535  0.59049535    -0.10300
C649        C  0.04286103  0.55964792  0.57268809    -0.09600
C650        C  0.03989706  0.53617060  0.54743825    -0.00500
C651        C  0.00526455  0.50421584  0.53945755    -0.10700
C652        C  0.47389348  0.49532041  0.55678161    -0.09100
H653        H  0.01405823  0.56834900  0.61057561     0.08800
H654        H  0.06946483  0.58469038  0.57870026     0.12500
H655        H  0.00248377  0.48628383  0.51939685     0.12200
H656        H  0.44750875  0.47069107  0.54958109     0.08800
C657        C  0.07689739  0.89291668  0.30823737    -0.10300
C658        C  0.05119909  0.89840097  0.32170776     0.06800
C659        C  0.01329853  0.87099497  0.31705861    -0.09100
C660        C  0.00139412  0.83951283  0.29851231    -0.10700
C661        C  0.02704775  0.83472019  0.28375061    -0.00500
C662        C  0.06494670  0.86136764  0.28945237    -0.09600
C663        C  0.06336621  0.93270664  0.33993943     0.06800
H664        H  0.99268947  0.87445227  0.32660744     0.08800
H665        H  0.97201313  0.81964088  0.29456377     0.12200
H666        H  0.08544196  0.85855354  0.27835016     0.12500
H667        H  0.10624785  0.91319134  0.31187597     0.08800
C668        C  0.04257271  0.93122899  0.36745064    -0.10300
C669        C  0.05181977  0.96323599  0.38323019    -0.09600
C670        C  0.08231634  0.99749187  0.37225092    -0.00500
C671        C  0.10411401  0.99945224  0.34558316    -0.10700
C672        C  0.09457603  0.96716787  0.32936630    -0.09100
H673        H  0.01908699  0.90526444  0.37690264     0.08800
H674        H  0.03521271  0.96130603  0.40435432     0.12500
H675        H  0.12802734  0.52576526  0.33716218     0.12200
H676        H  0.11102787  0.96925194  0.30808774     0.08800
C677        C  0.09083505  0.72646872  0.32895454    -0.10300
C678        C  0.07612982  0.69080303  0.34022337     0.06800
C679        C  0.04644491  0.66091415  0.32238238    -0.09100
C680        C  0.53110444  0.66667175  0.29450636    -0.10700
C681        C  0.04535910  0.70241594  0.28360112    -0.00500
C682        C  0.07584250  0.73221423  0.30087126    -0.09600
C683        C  0.08972302  0.68467134  0.37185731     0.06800
H684        H  0.53427361  0.63312321  0.33075730     0.08800
H685        H  0.50773993  0.64313086  0.28179020     0.12200
H686        H  0.08759593  0.76015318  0.29324898     0.12500
H687        H  0.11375767  0.74997961  0.34212088     0.08800
C688        C  0.09508436  0.65678567  0.37371250    -0.10300
C689        C  0.10153437  0.64680247  0.40480475    -0.09600
C690        C  0.10205431  0.66398147  0.43472304    -0.00500
C691        C  0.09959498  0.69373778  0.43260137    -0.10700
C692        C  0.09390560  0.70429197  0.40136983    -0.09100
H693        H  0.09249535  0.64152430  0.35134472     0.08800
H694        H  0.10277275  0.62344604  0.40577638     0.12500
H695        H  0.09902606  0.70679999  0.45539881     0.12200
H696        H  0.08976675  0.72582011  0.40073257     0.08800
C697        C  0.14475035  0.71243941  0.58319891    -0.10300
C698        C  0.16028715  0.74607568  0.56643997     0.06800
C699        C  0.16812273  0.74804786  0.53173155    -0.09100
C700        C  0.16279545  0.71782090  0.51476724    -0.10700
C701        C  0.15021059  0.68532924  0.53230655    -0.00500
C702        C  0.14023936  0.68252158  0.56639868    -0.09600
C703        C  0.17312217  0.77989550  0.58617632     0.06800
H704        H  0.18000192  0.77351522  0.51812770     0.08800
H705        H  0.17129153  0.72080062  0.48860039     0.12200
H706        H  0.13109232  0.65792963  0.58051412     0.12500
H707        H  0.13882865  0.71014453  0.60998598     0.08800
C708        C  0.15118892  0.77990578  0.61188225    -0.10300
C709        C  0.16599089  0.80986714  0.63400870    -0.09600
C710        C  0.20322449  0.83996687  0.63126367    -0.00500
C711        C  0.22441679  0.84078019  0.60440197    -0.10700
C712        C  0.20948121  0.81127779  0.58199013    -0.09100
H713        H  0.12304798  0.75615343  0.61563080     0.08800
H714        H  0.14910861  0.80836247  0.65461920     0.12500
H715        H  0.25318566  0.86360404  0.60165074     0.12200
H716        H  0.22722589  0.81204173  0.56270929     0.08800
C717        C  0.35015002  0.66678254  0.33471184    -0.10300
C718        C  0.31819717  0.63118907  0.32939557     0.06800
C719        C  0.31767422  0.61034972  0.30249515    -0.09100
C720        C  0.34832104  0.62531105  0.28085866    -0.10700
C721        C  0.37941704  0.66165374  0.28526889    -0.00500
C722        C  0.38020258  0.68199514  0.31265777    -0.09600
C723        C  0.28463949  0.61819328  0.34983740     0.06800
H724        H  0.29325283  0.58295886  0.29774624     0.08800
H725        H  0.34684042  0.60934650  0.25953285     0.12200
H726        H  0.40368639  0.71018153  0.31633847     0.12500
H727        H  0.35107329  0.68363984  0.35489885     0.08800
C728        C  0.28697296  0.62185403  0.38516660    -0.10300
C729        C  0.25812882  0.61800686  0.40382882    -0.09600
C730        C  0.22675795  0.61100314  0.38740807    -0.00500
C731        C  0.22321942  0.60471554  0.35243670    -0.10700
C732        C  0.25175979  0.60785505  0.33383398    -0.09100
H733        H  0.31205084  0.62985550  0.39806036     0.08800
H734        H  0.26173252  0.62364202  0.43067465     0.12500
H735        H  0.19939727  0.59967818  0.33927102     0.12200
H736        H  0.24939007  0.60521998  0.30662267     0.08800
N737        N  0.68713341  0.10577863  0.43609391    -0.03000
C738        C  0.70258174  0.11861760  0.40509275    -0.00400
C739        C  0.69819438  0.14508765  0.39420010    -0.23200
C740        C  0.67951837  0.14906069  0.41928747    -0.23500
C741        C  0.67284627  0.12467537  0.44452453    -0.00500
H742        H  0.70958594  0.16149505  0.37151805     0.13300
H743        H  0.67458718  0.16999382  0.42040525     0.13400
N744        N  0.64467437  0.14325901  0.48647602    -0.03000
C745        C  0.65611950  0.15874842  0.51754677    -0.00400
C746        C  0.68262142  0.15482576  0.52985944    -0.23200
C747        C  0.68817974  0.13670227  0.50546505    -0.23500
C748        C  0.66468697  0.12990386  0.47918596    -0.00500
H749        H  0.69874897  0.16701845  0.55259253     0.13300
H750        H  0.71014782  0.13303882  0.50522923     0.13400
N751        N  0.60760436  0.12562587  0.47606409    -0.03000
C752        C  0.59268404  0.14348993  0.46672223    -0.00400
C753        C  0.55615842  0.12369921  0.47748075    -0.23200
C754        C  0.54798017  0.09228680  0.49275071    -0.23500
C755        C  0.58000079  0.09429833  0.49120064    -0.00500
H756        H  0.53602547  0.12879985  0.47049318     0.13300
H757        H  0.52101465  0.06937114  0.50106867     0.13400
N758        N  0.61043588  0.04191773  0.41921053    -0.03000
C759        C  0.59069050  0.03018632  0.39028048    -0.00400
C760        C  0.56449988  0.03753082  0.39158945    -0.23200
C761        C  0.56663907  0.05148189  0.42315230    -0.23500
C762        C  0.59448901  0.05283060  0.44012961    -0.00500
H763        H  0.54192340  0.52761252  0.37409924     0.13300
H764        H  0.54618611  0.05452567  0.43386492     0.13400
N765        N  0.58274306  0.06468277  0.49893520    -0.03000
C766        C  0.57179466  0.04450234  0.52753534    -0.00400
C767        C  0.58030613  0.01939489  0.52535903    -0.23200
C768        C  0.59478704  0.02297537  0.49371256    -0.23500
C769        C  0.59510493  0.05048350  0.47751982    -0.00500
H770        H  0.57135773  0.99694209  0.54257520     0.13300
H771        H  0.59922878  0.00383494  0.48247765     0.13400
N772        N  0.67076826  0.06883377  0.44543340    -0.03000
C773        C  0.69035428  0.05562938  0.45462230    -0.00400
C774        C  0.67395158  0.02077084  0.44122102    -0.23200
C775        C  0.64265835  0.01151386  0.42456621    -0.23500
C776        C  0.64139743  0.04133956  0.42793863    -0.00500
H777        H  0.68088871  0.50189805  0.44720462     0.13300
H778        H  0.62179733  0.48490175  0.41415582     0.13400
Fe779      Fe  0.71826812  0.41623712  0.71323887     1.65800
Fe780      Fe  0.80939840  0.49126840  0.71228434     1.73200
Fe781      Fe  0.78770714  0.40521472  0.70684160     1.54400
O782        O  0.74754589  0.36601758  0.73853668    -0.81200
O783        O  0.83909710  0.49263892  0.67134763    -0.79500
O784        O  0.70727803  0.37849235  0.75105282    -0.83700
O785        O  0.70408984  0.37688924  0.67570582    -0.78500
O786        O  0.82290892  0.42888194  0.74738987    -0.80300
O787        O  0.78075858  0.50157868  0.67943035    -0.83000
C788        C  0.72172075  0.36736392  0.65883527     0.97700
C789        C  0.71968378  0.35930619  0.75476935     1.05200
O790        O  0.77173895  0.43763818  0.71087614    -1.12000
O791        O  0.78542449  0.49726928  0.75370700    -0.74400
O792        O  0.72530720  0.45221993  0.75115153    -0.77900
O793        O  0.75478325  0.37923939  0.66549717    -0.78600
C794        C  0.75268327  0.48129832  0.76464854     0.96600
O795        O  0.72298142  0.45130968  0.67559879    -0.76600
O796        O  0.84340591  0.48758951  0.74451158    -0.81800
C797        C  0.84720349  0.47086432  0.66275078     1.00500
C798        C  0.84533437  0.46229887  0.75595114     1.05200
O799        O  0.83061731  0.43885301  0.67475631    -0.77400
C800        C  0.74883148  0.48374871  0.66632762     1.03500
N801        N  0.60220844  0.11887807  0.93927826    -0.03000
C802        C  0.58612213  0.13606652  0.94695682    -0.00400
C803        C  0.55041096  0.11603926  0.93430885    -0.23200
C804        C  0.54411115  0.08539837  0.91879808    -0.23500
C805        C  0.57637333  0.08807371  0.92233644    -0.00500
H806        H  0.52956804  0.12070088  0.93963517     0.13300
H807        H  0.51799659  0.06236137  0.90911338     0.13400
N808        N  0.58003580  0.05873854  0.91636740    -0.03000
C809        C  0.57224327  0.03882671  0.88786591    -0.00400
C810        C  0.58267300  0.01538512  0.89210308    -0.23200
C811        C  0.59436425  0.01921094  0.92489887    -0.23500
C812        C  0.59150273  0.04547333  0.93966393    -0.00500
H813        H  0.57638521  0.99340288  0.87526356     0.13300
H814        H  0.59896562  0.00081561  0.93738626     0.13400
N815        N  0.60200918  0.03788191  0.00019846    -0.03000
C816        C  0.58034351  0.02722302  0.02797691    -0.00400
C817        C  0.55428074  0.03435604  0.02333329    -0.23200
C818        C  0.55848004  0.04696673  0.99086665    -0.23500
C819        C  0.58745090  0.04781427  0.97671123    -0.00500
H820        H  0.53074777  0.52530871  0.03946702     0.13300
H821        H  0.53877833  0.04954522  0.97796136     0.13400
N822        N  0.66439676  0.06378908  0.97925375    -0.03000
C823        C  0.68371961  0.04970532  0.97225239    -0.00400
C824        C  0.66462785  0.01405821  0.98443736    -0.23200
C825        C  0.63224569  0.00549603  0.99835374    -0.23500
C826        C  0.63305967  0.03650212  0.99480490    -0.00500
H827        H  0.67094111  0.99451674  0.97930459     0.13300
H828        H  0.60945455  0.97871664  0.00695208     0.13400
N829        N  0.68056908  0.10104085  0.98725633    -0.03000
C830        C  0.69604102  0.11525479  0.01792695    -0.00400
C831        C  0.69171268  0.14224637  0.02718033    -0.23200
C832        C  0.67309553  0.14509074  0.00140554    -0.23500
C833        C  0.66625436  0.11950643  0.97734697    -0.00500
H834        H  0.70353651  0.16003552  0.04899961     0.13300
H835        H  0.66896636  0.16649655  0.99874989     0.13400
N836        N  0.64025093  0.13723359  0.93208033    -0.03000
C837        C  0.65461381  0.15388940  0.90190564    -0.00400
C838        C  0.68349196  0.15221597  0.89262454    -0.23200
C839        C  0.68744252  0.13409411  0.91807345    -0.23500
C840        C  0.66059300  0.12491715  0.94189520    -0.00500
H841        H  0.70143755  0.16515330  0.87093507     0.13300
H842        H  0.71015757  0.13171694  0.92070839     0.13400
Fe843      Fe  0.96031724  0.17852688  0.20782273     1.65800
Fe844      Fe  0.95028485  0.24869579  0.21233359     1.73200
Fe845      Fe  0.53688697  0.26883693  0.20780361     1.54400
O846        O  0.54570252  0.24146265  0.24345714    -0.81200
O847        O  0.97905210  0.28861291  0.17625821    -0.79500
O848        O  0.99653703  0.18316760  0.24432253    -0.83700
O849        O  0.99487089  0.18465222  0.16868374    -0.78500
O850        O  0.53779355  0.30043974  0.24632555    -0.80300
O851        O  0.91565138  0.21372690  0.17479934    -0.83000
C852        C  0.02558142  0.21095504  0.15634411     0.97700
C853        C  0.02818219  0.20919866  0.25528111     1.05200
O854        O  0.98246848  0.23196611  0.20930853    -1.12000
O855        O  0.91734965  0.21153545  0.24928443    -0.74400
O856        O  0.92205914  0.16476074  0.24615722    -0.77900
O857        O  0.54358300  0.24310336  0.16850570    -0.78600
C858        C  0.90825765  0.18036081  0.25889061     0.96600
O859        O  0.92085691  0.16719611  0.17180160    -0.76600
O860        O  0.98090616  0.28610978  0.24984443    -0.81800
C861        C  0.01151383  0.30712984  0.16417428     0.99300
C862        C  0.51442172  0.30484458  0.25902968     1.05200
O863        O  0.53538736  0.30164674  0.17252386    -0.77400
C864        C  0.90639703  0.18335006  0.16242626     1.03500
C865        C  0.84311377  0.17305534  0.09277712    -0.10300
C866        C  0.81460637  0.13541484  0.09403248     0.06800
C867        C  0.81767563  0.11295645  0.11627676    -0.09100
C868        C  0.84877137  0.12812145  0.13718298    -0.10700
C869        C  0.87661706  0.16610559  0.13683976    -0.00500
C870        C  0.87356524  0.18831416  0.11421680    -0.09600
C871        C  0.78073881  0.12092402  0.07395304     0.06800
H872        H  0.79578804  0.08391101  0.11782089     0.08800
H873        H  0.85017652  0.11050633  0.15477661     0.12200
H874        H  0.89447362  0.21766790  0.11358427     0.12500
H875        H  0.84106561  0.19090640  0.07606655     0.08800
C876        C  0.74800046  0.11087101  0.09017528    -0.10300
C877        C  0.71861269  0.10556502  0.07145306    -0.09600
C878        C  0.72122365  0.10948340  0.03617735    -0.00500
C879        C  0.75278630  0.11659288  0.01976555    -0.10700
C880        C  0.78249503  0.12264583  0.03854485    -0.09100
H881        H  0.74626224  0.10985601  0.11748203     0.08800
H882        H  0.69478118  0.10069102  0.08463363     0.12500
H883        H  0.75581902  0.12069420  0.99269381     0.12200
H884        H  0.80765511  0.13073564  0.02560444     0.08800
C885        C  0.53019879  0.43115314  0.06045697    -0.10300
C886        C  0.55510529  0.43370447  0.08390442     0.06800
C887        C  0.58906426  0.46790377  0.08932818    -0.09100
C888        C  0.59747197  0.49913402  0.07191588    -0.10700
C889        C  0.57194274  0.49627608  0.04906458    -0.00500
C890        C  0.53846780  0.46206440  0.04336303    -0.09600
C891        C  0.54433683  0.40074436  0.10339634     0.06800
H892        H  0.60869245  0.47055041  0.10736492     0.08800
H893        H  0.62377871  0.52527016  0.07599078     0.12200
H894        H  0.51891310  0.45910418  0.02499794     0.12500
H895        H  0.50426909  0.40507919  0.05516274     0.08800
C896        C  0.50818675  0.37759546  0.11604832    -0.10300
C897        C  0.49726323  0.34643490  0.13448238    -0.09600
C898        C  0.52230931  0.33771607  0.14103575    -0.00500
C899        C  0.55842961  0.36054980  0.12795367    -0.10700
C900        C  0.56936781  0.39186431  0.10929052    -0.09100
H901        H  0.48843827  0.38402588  0.11231200     0.08800
H902        H  0.96932838  0.32967467  0.14434869     0.12500
H903        H  0.57843355  0.35465711  0.13270245     0.12200
H904        H  0.59727521  0.40907588  0.09947151     0.08800
C905        C  0.54231513  0.16210254  0.08854604    -0.10300
C906        C  0.57084011  0.19157447  0.06939344     0.06800
C907        C  0.58447737  0.22750155  0.07907601    -0.09100
C908        C  0.57005024  0.23378442  0.10750575    -0.10700
C909        C  0.54121747  0.20423319  0.12651726    -0.00500
C910        C  0.02751836  0.16831677  0.11660515    -0.09600
C911        C  0.58449578  0.18421882  0.03843521     0.06800
H912        H  0.60633562  0.25067344  0.06471282     0.08800
H913        H  0.58115984  0.26181094  0.11432244     0.12200
H914        H  0.00538477  0.14497481  0.13061989     0.12500
H915        H  0.03079870  0.13406722  0.08126718     0.08800
C916        C  0.58632782  0.20060628  0.00753708    -0.10300
C917        C  0.59111758  0.18762178  0.97723480    -0.09600
C918        C  0.59494151  0.15865960  0.97747773    -0.00500
C919        C  0.59655655  0.14472365  0.00856207    -0.10700
C920        C  0.59134444  0.15732420  0.03875099    -0.09100
H921        H  0.58097844  0.22127432  0.00655053     0.08800
H922        H  0.58896837  0.19818434  0.95349859     0.12500
H923        H  0.59844615  0.12172936  0.00940804     0.12200
H924        H  0.59044254  0.14449349  0.06221915     0.08800
C925        C  0.69276184  0.27017814  0.79422531    -0.10300
C926        C  0.66885720  0.26474547  0.82050583     0.06800
C927        C  0.66152385  0.29108720  0.82554242    -0.09100
C928        C  0.67736352  0.32185252  0.80409537    -0.10700
C929        C  0.70141372  0.32706940  0.77784494    -0.00500
C930        C  0.70876852  0.30074073  0.77335822    -0.09600
C931        C  0.65387404  0.23235662  0.84296847     0.06800
H932        H  0.64341225  0.28772399  0.84583022     0.08800
H933        H  0.67126748  0.34169613  0.80829749     0.12200
H934        H  0.72702060  0.30360306  0.75343351     0.12500
H935        H  0.69976528  0.25099709  0.79012741     0.08800
C936        C  0.64208804  0.19832255  0.82884153    -0.10300
C937        C  0.63844669  0.17079592  0.84888716    -0.09600
C938        C  0.64565975  0.17640555  0.88354021    -0.00500
C939        C  0.65314680  0.20855796  0.89842609    -0.10700
C940        C  0.65731343  0.23645990  0.87823749    -0.09100
H941        H  0.63855919  0.19411553  0.80181811     0.08800
H942        H  0.63276814  0.14622987  0.83694416     0.12500
H943        H  0.65929298  0.21355647  0.92510330     0.12200
H944        H  0.66645511  0.26235820  0.88983430     0.08800
C945        C  0.51011747  0.04210576  0.82519328    -0.10300
C946        C  0.97685293  0.00696215  0.82995374     0.06800
C947        C  0.97627655  0.98273521  0.85275064    -0.09100
C948        C  0.50790786  0.99322949  0.87040254    -0.10700
C949        C  0.54083560  0.02827278  0.86603173    -0.00500
C950        C  0.54192956  0.05277322  0.84331310    -0.09600
C951        C  0.94247638  0.99540073  0.81195246     0.06800
H952        H  0.95111543  0.45596582  0.85774749     0.08800
H953        H  0.50631049  0.97421730  0.88846428     0.12200
H954        H  0.56706717  0.08005913  0.83997991     0.12500
H955        H  0.51151559  0.06127964  0.80754677     0.08800
C956        C  0.93363965  0.02035693  0.80613236    -0.10300
C957        C  0.90112581  0.00918948  0.78931962    -0.09600
C958        C  0.87666390  0.47277259  0.77814738    -0.00500
C959        C  0.88503732  0.44760791  0.78477668    -0.10700
C960        C  0.91767092  0.45885321  0.80124735    -0.09100
H961        H  0.95176349  0.04849231  0.81467228     0.08800
H962        H  0.89552738  0.02929747  0.78451691     0.12500
H963        H  0.86711315  0.41951075  0.77606771     0.12200
H964        H  0.92384797  0.43901547  0.80484075     0.08800
C965        C  0.70537093  0.50159414  0.83157527    -0.10300
C966        C  0.73562841  0.52991904  0.85013403     0.06800
C967        C  0.77140486  0.54205725  0.84042625    -0.09100
C968        C  0.77684508  0.52633530  0.81265699    -0.10700
C969        C  0.74657828  0.49772199  0.79420029    -0.00500
C970        C  0.71075795  0.48553497  0.80404098    -0.09600
C971        C  0.72943177  0.04489365  0.88075019     0.06800
H972        H  0.79518291  0.06374468  0.85433459     0.08800
H973        H  0.80483960  0.53642939  0.80584394     0.12200
H974        H  0.68686751  0.46365490  0.79041792     0.12500
H975        H  0.67743007  0.49126643  0.83886997     0.08800
C976        C  0.70347477  0.05319619  0.88042992    -0.10300
C977        C  0.69224203  0.06022853  0.91058302    -0.09600
C978        C  0.70649423  0.05881496  0.94161263    -0.00500
C979        C  0.73486588  0.05383089  0.94164265    -0.10700
C980        C  0.74641288  0.04714057  0.91142913    -0.09100
H981        H  0.69025575  0.05204034  0.85710287     0.08800
H982        H  0.66963828  0.06295589  0.90985727     0.12500
H983        H  0.74565102  0.05179052  0.96531092     0.12200
H984        H  0.76641489  0.54075984  0.91242396     0.08800
C985        C  0.74842079  0.05418759  0.52169334    -0.10300
C986        C  0.72719827  0.04847047  0.55060501     0.06800
C987        C  0.69897346  0.55355310  0.54814404    -0.09100
C988        C  0.69026208  0.56127435  0.51695003    -0.10700
C989        C  0.70921562  0.06355025  0.48750764    -0.00500
C990        C  0.73931232  0.06136756  0.49040396    -0.09600
C991        C  0.73239384  0.53398722  0.58217831     0.06800
H992        H  0.68246959  0.54980765  0.57005531     0.08800
H993        H  0.66655788  0.56214527  0.51540084     0.12200
H994        H  0.75375696  0.06212950  0.46798930     0.12500
H995        H  0.77022903  0.05028460  0.52272537     0.08800
C996        C  0.76799428  0.54810179  0.59399011    -0.10300
C997        C  0.77301386  0.53235067  0.62183992    -0.09600
C998        C  0.74256725  0.50167411  0.63838601    -0.00500
C999        C  0.70684656  0.48796924  0.62702939    -0.10700
C1000       C  0.70181111  0.50411792  0.59936206    -0.09100
H1001       H  0.79203893  0.07116524  0.58141961     0.08800
H1002       H  0.80096017  0.54366586  0.62981179     0.12500
H1003       H  0.68283489  0.46448293  0.63921688     0.12200
H1004       H  0.67402356  0.49235618  0.59060378     0.08800
C1005       C  0.91694747  0.46927573  0.61022180    -0.10300
C1006       C  0.94284695  0.00651451  0.60234767     0.06800
C1007       C  0.93598159  0.03202131  0.61288624    -0.09100
C1008       C  0.90397572  0.02044184  0.63129255    -0.10700
C1009       C  0.87839932  0.48317332  0.63945631    -0.00500
C1010       C  0.88510046  0.45775525  0.62829214    -0.09600
C1011       C  0.97646298  0.01796650  0.58284803     0.06800
H1012       H  0.95526518  0.06083996  0.60684027     0.08800
H1013       H  0.89974481  0.04071282  0.63983808     0.12200
H1014       H  0.86618495  0.42887593  0.63431448     0.12500
H1015       H  0.92164971  0.44897456  0.60307195     0.08800
C1016       C  0.51123695  0.05046551  0.59049536    -0.10300
C1017       C  0.54286126  0.05964815  0.57268813    -0.09600
C1018       C  0.53989715  0.03617060  0.54743811    -0.00500
C1019       C  0.50526498  0.00421627  0.53945778    -0.10700
C1020       C  0.97389354  0.99532040  0.55678186    -0.09100
H1021       H  0.51405826  0.06834916  0.61057559     0.08800
H1022       H  0.56946414  0.08468986  0.57869994     0.12500
H1023       H  0.50248369  0.98628256  0.51939506     0.12200
H1024       H  0.94750969  0.97069160  0.54958135     0.08800
C1025       C  0.57689731  0.39291657  0.30823729    -0.10300
C1026       C  0.55119872  0.39840075  0.32170787     0.06800
C1027       C  0.51329843  0.37099456  0.31705871    -0.09100
C1028       C  0.50139413  0.33951294  0.29851272    -0.10700
C1029       C  0.52704764  0.33472012  0.28375070    -0.00500
C1030       C  0.56494654  0.36136778  0.28945245    -0.09600
C1031       C  0.56336637  0.43270657  0.33993937     0.06800
H1032       H  0.49268698  0.37445254  0.32660912     0.08800
H1033       H  0.47201031  0.31963882  0.29456354     0.12200
H1034       H  0.58544352  0.35855358  0.27834939     0.12500
H1035       H  0.60624787  0.41319156  0.31187605     0.08800
C1036       C  0.54257267  0.43122878  0.36745104    -0.10300
C1037       C  0.55181990  0.46323573  0.38323025    -0.09600
C1038       C  0.58231579  0.49749134  0.37225131    -0.00500
C1039       C  0.60411425  0.49945246  0.34558302    -0.10700
C1040       C  0.59457551  0.46716758  0.32936675    -0.09100
H1041       H  0.51908758  0.40526442  0.37690288     0.08800
H1042       H  0.53521076  0.46130547  0.40435676     0.12500
H1043       H  0.62802981  0.02576841  0.33716098     0.12200
H1044       H  0.61103002  0.46925238  0.30808501     0.08800
C1045       C  0.59083471  0.22646896  0.32895447    -0.10300
C1046       C  0.57613016  0.19080356  0.34022338     0.06800
C1047       C  0.54644519  0.16091448  0.32238220    -0.09100
C1048       C  0.03110469  0.16667198  0.29450611    -0.10700
C1049       C  0.54535936  0.20241654  0.28360123    -0.00500
C1050       C  0.57584251  0.23221444  0.30087180    -0.09600
C1051       C  0.58972291  0.18467147  0.37185721     0.06800
H1052       H  0.03427435  0.13312478  0.33075643     0.08800
H1053       H  0.00773955  0.14313007  0.28178926     0.12200
H1054       H  0.58759694  0.26015726  0.29324840     0.12500
H1055       H  0.61376088  0.24998330  0.34212325     0.08800
C1056       C  0.59508434  0.15678597  0.37371274    -0.10300
C1057       C  0.60153435  0.14680267  0.40480444    -0.09600
C1058       C  0.60205419  0.16398160  0.43472307    -0.00500
C1059       C  0.59959485  0.19373788  0.43260104    -0.10700
C1060       C  0.59390550  0.20429173  0.40137001    -0.09100
H1061       H  0.59249506  0.14152295  0.35134212     0.08800
H1062       H  0.60277299  0.12344561  0.40577628     0.12500
H1063       H  0.59902573  0.20680130  0.45540108     0.12200
H1064       H  0.58976568  0.22582247  0.40073236     0.08800
C1065       C  0.64475017  0.21243934  0.58319871    -0.10300
C1066       C  0.66028702  0.24607565  0.56644024     0.06800
C1067       C  0.66812269  0.24804779  0.53173176    -0.09100
C1068       C  0.66279560  0.21782095  0.51476728    -0.10700
C1069       C  0.65021044  0.18532915  0.53230674    -0.00500
C1070       C  0.64023914  0.18252152  0.56639897    -0.09600
C1071       C  0.67312187  0.27989538  0.58617651     0.06800
H1072       H  0.68000198  0.27351545  0.51812752     0.08800
H1073       H  0.67129125  0.22080052  0.48860166     0.12200
H1074       H  0.63109206  0.15792915  0.58051422     0.12500
H1075       H  0.63882753  0.21014430  0.60998909     0.08800
C1076       C  0.65118936  0.27990642  0.61188211    -0.10300
C1077       C  0.66599066  0.30986707  0.63400863    -0.09600
C1078       C  0.70322488  0.33996719  0.63126343    -0.00500
C1079       C  0.72441634  0.34077977  0.60440199    -0.10700
C1080       C  0.70948147  0.31127811  0.58199012    -0.09100
H1081       H  0.62304373  0.25614999  0.61563158     0.08800
H1082       H  0.64910907  0.30836301  0.65461869     0.12500
H1083       H  0.75319097  0.36360795  0.60165038     0.12200
H1084       H  0.72722545  0.31204136  0.56270940     0.08800
C1085       C  0.85014993  0.16678230  0.33471148    -0.10300
C1086       C  0.81819714  0.13118934  0.32939573     0.06800
C1087       C  0.81767424  0.11034995  0.30249496    -0.09100
C1088       C  0.84832094  0.12531120  0.28085860    -0.10700
C1089       C  0.87941691  0.16165375  0.28526864    -0.00500
C1090       C  0.88020243  0.18199514  0.31265797    -0.09600
C1091       C  0.78463910  0.11819317  0.34983704     0.06800
H1092       H  0.79325228  0.08295890  0.29774595     0.08800
H1093       H  0.84684031  0.10934596  0.25953166     0.12200
H1094       H  0.90368700  0.21018201  0.31633832     0.12500
H1095       H  0.85107324  0.18364254  0.35490238     0.08800
C1096       C  0.78697317  0.12185403  0.38516630    -0.10300
C1097       C  0.75812842  0.11800675  0.40382898    -0.09600
C1098       C  0.72675762  0.11100304  0.38740756    -0.00500
C1099       C  0.72321936  0.10471561  0.35243655    -0.10700
C1100       C  0.75175957  0.10785508  0.33383348    -0.09100
H1101       H  0.81204654  0.12985379  0.39805842     0.08800
H1102       H  0.76173205  0.12364109  0.43066996     0.12500
H1103       H  0.69939586  0.09967775  0.33927010     0.12200
H1104       H  0.74939002  0.10522021  0.30662318     0.08800
N1105       N  0.68712719  0.60577702  0.43610549    -0.03000
C1106       C  0.70256634  0.61861101  0.40510078    -0.00400
C1107       C  0.69818173  0.64508391  0.39421097    -0.23200
C1108       C  0.67951621  0.64906376  0.41930425    -0.23500
C1109       C  0.67284657  0.62467860  0.44454033    -0.00500
H1110       H  0.70956757  0.66148729  0.37152998     0.13300
H1111       H  0.67459084  0.66999861  0.42042496     0.13400
N1112       N  0.64467797  0.64326539  0.48649077    -0.03000
C1113       C  0.65611871  0.65874737  0.51756450    -0.00400
C1114       C  0.68261382  0.65481576  0.52987976    -0.23200
C1115       C  0.68817303  0.63669422  0.50548330    -0.23500
C1116       C  0.66468649  0.62990580  0.47920146    -0.00500
H1117       H  0.69873612  0.66699995  0.55261534     0.13300
H1118       H  0.71013479  0.63302587  0.50524931     0.13400
N1119       N  0.60761069  0.62563934  0.47607330    -0.03000
C1120       C  0.59269592  0.64350894  0.46673108    -0.00400
C1121       C  0.55616926  0.62372111  0.47748730    -0.23200
C1122       C  0.54798517  0.59230511  0.49275476    -0.23500
C1123       C  0.58000275  0.59431165  0.49120616    -0.00500
H1124       H  0.53604131  0.62882588  0.47050026     0.13300
H1125       H  0.52101688  0.56938999  0.50107054     0.13400
N1126       N  0.61043087  0.54192132  0.41921997    -0.03000
C1127       C  0.59068563  0.53018967  0.39029024    -0.00400
C1128       C  0.56450164  0.53754329  0.39159450    -0.23200
C1129       C  0.56664373  0.55149987  0.42315606    -0.23500
C1130       C  0.59448880  0.55284138  0.44013594    -0.00500
H1131       H  0.54191850  0.02759665  0.37409260     0.13300
H1132       H  0.54619740  0.55454969  0.43386397     0.13400
N1133       N  0.58274038  0.56469311  0.49894065    -0.03000
C1134       C  0.57179150  0.54451273  0.52754106    -0.00400
C1135       C  0.58030161  0.51940476  0.52536519    -0.23200
C1136       C  0.59478063  0.52298260  0.49371910    -0.23500
C1137       C  0.59510053  0.55049217  0.47752604    -0.00500
H1138       H  0.57135095  0.49694788  0.54258513     0.13300
H1139       H  0.59922040  0.50384238  0.48248534     0.13400
N1140       N  0.67076034  0.56883198  0.44544618    -0.03000
C1141       C  0.69034411  0.55562564  0.45463619    -0.00400
C1142       C  0.67393752  0.52076464  0.44123832    -0.23200
C1143       C  0.64264507  0.51150976  0.42458227    -0.23500
C1144       C  0.64138883  0.54133858  0.42795151    -0.00500
H1145       H  0.68090651  0.00190300  0.44718631     0.13300
H1146       H  0.62181122  0.98490496  0.41413802     0.13400
Fe1147     Fe  0.71826336  0.91624240  0.71323545     1.65800
Fe1148     Fe  0.80939269  0.99127011  0.71227616     1.73200
Fe1149     Fe  0.78769766  0.90521723  0.70683793     1.54400
O1150       O  0.74752077  0.86600659  0.73851463    -0.81200
O1151       O  0.83907738  0.99263623  0.67133007    -0.79500
O1152       O  0.70727480  0.87850284  0.75105447    -0.83700
O1153       O  0.70408560  0.87688872  0.67570922    -0.78500
O1154       O  0.82288118  0.92887224  0.74739968    -0.80300
O1155       O  0.78074697  0.00158397  0.67943252    -0.83000
C1156       C  0.72172028  0.86737348  0.65882960     0.97700
C1157       C  0.71966599  0.85930208  0.75475573     1.05200
O1158       O  0.77173207  0.93764168  0.71087125    -1.12000
O1159       O  0.78542853  0.99727002  0.75370661    -0.74400
O1160       O  0.72530724  0.95223330  0.75114184    -0.77900
O1161       O  0.75478833  0.87926025  0.66548112    -0.78600
C1162       C  0.75268658  0.98130589  0.76464365     0.96600
O1163       O  0.72297487  0.95130854  0.67558989    -0.76600
O1164       O  0.84340650  0.98758701  0.74449265    -0.81800
C1165       C  0.84720022  0.97086976  0.66275257     1.00500
C1166       C  0.84532127  0.96229221  0.75594622     1.05200
O1167       O  0.83062447  0.93886515  0.67477144    -0.77400
C1168       C  0.74882205  0.98375098  0.66632469     1.03500
N1169       N  0.60218989  0.61886061  0.93925442    -0.03000
C1170       C  0.58609904  0.63604410  0.94693341    -0.00400
C1171       C  0.55038382  0.61600716  0.93429402    -0.23200
C1172       C  0.54408706  0.58536505  0.91878807    -0.23500
C1173       C  0.57635499  0.58804981  0.92232054    -0.00500
H1174       H  0.52953941  0.62066264  0.93962346     0.13300
H1175       H  0.51797273  0.56232286  0.90911267     0.13400
N1176       N  0.58002124  0.55871593  0.91635964    -0.03000
C1177       C  0.57221614  0.53878847  0.88786665    -0.00400
C1178       C  0.58263716  0.51534128  0.89211400    -0.23200
C1179       C  0.59433728  0.51918090  0.92490771    -0.23500
C1180       C  0.59148826  0.54545596  0.93966202    -0.00500
H1181       H  0.57633852  0.49334665  0.87528171     0.13300
H1182       H  0.59893483  0.50078599  0.93740395     0.13400
N1183       N  0.60200801  0.53789011  0.00019883    -0.03000
C1184       C  0.58034407  0.52723209  0.02797839    -0.00400
C1185       C  0.55427338  0.53435381  0.02333086    -0.23200
C1186       C  0.55846649  0.54695589  0.99086201    -0.23500
C1187       C  0.58744149  0.54780998  0.97670817    -0.00500
H1188       H  0.53075833  0.02531506  0.03946693     0.13300
H1189       H  0.53875636  0.54952351  0.97795222     0.13400
N1190       N  0.66439273  0.56379872  0.97924736    -0.03000
C1191       C  0.68371686  0.54971713  0.97224442    -0.00400
C1192       C  0.66462927  0.51407157  0.98443257    -0.23200
C1193       C  0.63224950  0.50550927  0.99835430    -0.23500
C1194       C  0.63305986  0.53651299  0.99480470    -0.00500
H1195       H  0.67094391  0.49453136  0.97929904     0.13300
H1196       H  0.60945861  0.47872749  0.00695680     0.13400
N1197       N  0.68056291  0.60105121  0.98724285    -0.03000
C1198       C  0.69603566  0.61527220  0.01791174    -0.00400
C1199       C  0.69170797  0.64226598  0.02715717    -0.23200
C1200       C  0.67308980  0.64510453  0.00137845    -0.23500
C1201       C  0.66624673  0.61951306  0.97732658    -0.00500
H1202       H  0.70353201  0.66005983  0.04897166     0.13300
H1203       H  0.66896187  0.66650618  0.99871645     0.13400
N1204       N  0.64023248  0.63722076  0.93205359    -0.03000
C1205       C  0.65459277  0.65387530  0.90187761    -0.00400
C1206       C  0.68347732  0.65221089  0.89260110    -0.23200
C1207       C  0.68743375  0.63409575  0.91805208    -0.23500
C1208       C  0.66058140  0.62491378  0.94187264    -0.00500
H1209       H  0.70142694  0.66515301  0.87090787     0.13300
H1210       H  0.71015416  0.63172579  0.92069008     0.13400
Fe1211     Fe  0.96030151  0.67853917  0.20782646     1.65800
Fe1212     Fe  0.95028146  0.74871592  0.21234280     1.73200
Fe1213     Fe  0.53689466  0.76882914  0.20778466     1.54400
O1214       O  0.54572125  0.74146892  0.24344697    -0.81200
O1215       O  0.97905879  0.78863753  0.17627287    -0.79500
O1216       O  0.99650988  0.68316584  0.24433039    -0.83700
O1217       O  0.99486157  0.68466587  0.16869313    -0.78500
O1218       O  0.53780345  0.80044317  0.24629622    -0.80300
O1219       O  0.91564811  0.71375362  0.17480381    -0.83000
C1220       C  0.02557392  0.71096895  0.15635622     0.97700
C1221       C  0.02815686  0.70919130  0.25528950     1.05200
O1222       O  0.98245938  0.73197947  0.20931866    -1.12000
O1223       O  0.91733820  0.71155315  0.24928913    -0.74400
O1224       O  0.92203863  0.66477294  0.24615471    -0.77900
O1225       O  0.54359155  0.74308954  0.16849328    -0.78600
C1226       C  0.90823992  0.68037476  0.25888965     0.96600
O1227       O  0.92084908  0.66721992  0.17180142    -0.76600
O1228       O  0.98090133  0.78612150  0.24985943    -0.81800
C1229       C  0.01152501  0.80715811  0.16419907     0.99300
C1230       C  0.51443083  0.80484535  0.25900308     1.05200
O1231       O  0.53537981  0.80162202  0.17249511    -0.77400
C1232       C  0.90639134  0.68337661  0.16242853     1.03500
C1233       C  0.84311739  0.67308389  0.09276913    -0.10300
C1234       C  0.81459987  0.63544605  0.09403478     0.06800
C1235       C  0.81765848  0.61298991  0.11629122    -0.09100
C1236       C  0.84875332  0.62815204  0.13719815    -0.10700
C1237       C  0.87660995  0.66613378  0.13684325    -0.00500
C1238       C  0.87356836  0.68834119  0.11421021    -0.09600
C1239       C  0.78073542  0.62095750  0.07395011     0.06800
H1240       H  0.79576134  0.58394360  0.11784374     0.08800
H1241       H  0.85015060  0.61054064  0.15479844     0.12200
H1242       H  0.89448416  0.71769243  0.11356960     0.12500
H1243       H  0.84107853  0.69093267  0.07605077     0.08800
C1244       C  0.74799186  0.61089608  0.09016863    -0.10300
C1245       C  0.71860416  0.60558560  0.07144162    -0.09600
C1246       C  0.72121993  0.60950621  0.03616625    -0.00500
C1247       C  0.75278787  0.61662370  0.01975902    -0.10700
C1248       C  0.78249671  0.62268242  0.03854222    -0.09100
H1249       H  0.74624922  0.60987796  0.11747047     0.08800
H1250       H  0.69476872  0.60070551  0.08461909     0.12500
H1251       H  0.75582364  0.62072625  0.99268574     0.12200
H1252       H  0.80766082  0.63077747  0.02560466     0.08800
C1253       C  0.53017322  0.93113572  0.06044202    -0.10300
C1254       C  0.55507528  0.93367576  0.08388819     0.06800
C1255       C  0.58903682  0.96787113  0.08931759    -0.09100
C1256       C  0.59745430  0.99910728  0.07191059    -0.10700
C1257       C  0.57193147  0.99625998  0.04905841    -0.00500
C1258       C  0.53845150  0.96205353  0.04335304    -0.09600
C1259       C  0.54430458  0.90070744  0.10336818     0.06800
H1260       H  0.60866327  0.97051094  0.10735591     0.08800
H1261       H  0.62376299  0.02523904  0.07598960     0.12200
H1262       H  0.51890240  0.95910232  0.02498974     0.12500
H1263       H  0.50424253  0.90506676  0.05514184     0.08800
C1264       C  0.50814882  0.87754129  0.11600372    -0.10300
C1265       C  0.49723090  0.84638110  0.13443640    -0.09600
C1266       C  0.52228835  0.83768022  0.14100480    -0.00500
C1267       C  0.55841258  0.86052745  0.12793445    -0.10700
C1268       C  0.56934467  0.89184098  0.10927266    -0.09100
H1269       H  0.48839085  0.88395957  0.11225889     0.08800
H1270       H  0.96936819  0.82974276  0.14440441     0.12500
H1271       H  0.57842244  0.85464941  0.13269325     0.12200
H1272       H  0.59725512  0.90906307  0.09946633     0.08800
C1273       C  0.54230546  0.66209006  0.08851835    -0.10300
C1274       C  0.57083361  0.69156251  0.06936902     0.06800
C1275       C  0.58447855  0.72748985  0.07905792    -0.09100
C1276       C  0.57005632  0.73377153  0.10749200    -0.10700
C1277       C  0.54122103  0.70421991  0.12650144    -0.00500
C1278       C  0.02752361  0.66833018  0.11662909    -0.09600
C1279       C  0.58448628  0.68420750  0.03840905     0.06800
H1280       H  0.60633930  0.75066171  0.06469646     0.08800
H1281       H  0.58117328  0.76180115  0.11431499     0.12200
H1282       H  0.00539429  0.64499007  0.13064577     0.12500
H1283       H  0.03081441  0.63408004  0.08130125     0.08800
C1284       C  0.58630628  0.70058745  0.00750994    -0.10300
C1285       C  0.59109065  0.68759961  0.97720747    -0.09600
C1286       C  0.59492166  0.65864210  0.97745096    -0.00500
C1287       C  0.59654832  0.64471405  0.00853566    -0.10700
C1288       C  0.59134163  0.65731798  0.03872442    -0.09100
H1289       H  0.58095075  0.72125292  0.00652424     0.08800
H1290       H  0.58893182  0.69815598  0.95346946     0.12500
H1291       H  0.59844294  0.62172241  0.00938202     0.12200
H1292       H  0.59044772  0.64449111  0.06219624     0.08800
C1293       C  0.69273026  0.77016088  0.79419409    -0.10300
C1294       C  0.66882389  0.76472421  0.82047395     0.06800
C1295       C  0.66149015  0.79106588  0.82551408    -0.09100
C1296       C  0.67733460  0.82183606  0.80407188    -0.10700
C1297       C  0.70138880  0.82705819  0.77782383    -0.00500
C1298       C  0.70874119  0.80072786  0.77333201    -0.09600
C1299       C  0.65384222  0.73233469  0.84293643     0.06800
H1300       H  0.64337991  0.78770051  0.84579778     0.08800
H1301       H  0.67123893  0.84167995  0.80827763     0.12200
H1302       H  0.72699522  0.80359365  0.75340955     0.12500
H1303       H  0.69973428  0.75097821  0.79009279     0.08800
C1304       C  0.64206175  0.69830194  0.82881040    -0.10300
C1305       C  0.63842313  0.67077735  0.84885724    -0.09600
C1306       C  0.64563360  0.67638696  0.88351084    -0.00500
C1307       C  0.65311509  0.70853751  0.89839522    -0.10700
C1308       C  0.65727887  0.73643792  0.87820609    -0.09100
H1309       H  0.63853516  0.69409491  0.80178586     0.08800
H1310       H  0.63274842  0.64621082  0.83691423     0.12500
H1311       H  0.65926010  0.71353745  0.92507498     0.12200
H1312       H  0.66641548  0.76233243  0.88980133     0.08800
C1313       C  0.51010124  0.54207789  0.82518907    -0.10300
C1314       C  0.97687372  0.50698330  0.82995357     0.06800
C1315       C  0.97630582  0.48275765  0.85274479    -0.09100
C1316       C  0.50787697  0.49320103  0.87040776    -0.10700
C1317       C  0.54081041  0.52823821  0.86603125    -0.00500
C1318       C  0.54191209  0.55273986  0.84330762    -0.09600
C1319       C  0.94249435  0.49541731  0.81195408     0.06800
H1320       H  0.95108450  0.95595100  0.85775552     0.08800
H1321       H  0.50627351  0.47418830  0.88847368     0.12200
H1322       H  0.56705286  0.58001973  0.83997100     0.12500
H1323       H  0.51150461  0.56125554  0.80753582     0.08800
C1324       C  0.93365498  0.52037139  0.80613236    -0.10300
C1325       C  0.90113905  0.50920026  0.78932122    -0.09600
C1326       C  0.87665014  0.97276312  0.77814211    -0.00500
C1327       C  0.88502177  0.94759673  0.78476877    -0.10700
C1328       C  0.91765296  0.95883826  0.80124152    -0.09100
H1329       H  0.95177589  0.54850520  0.81466899     0.08800
H1330       H  0.89553996  0.52930669  0.78451683     0.12500
H1331       H  0.86709627  0.91949928  0.77605610     0.12200
H1332       H  0.92382869  0.93899885  0.80483459     0.08800
C1333       C  0.70538165  0.00161369  0.83156597    -0.10300
C1334       C  0.73563969  0.02992240  0.85013739     0.06800
C1335       C  0.77141360  0.04204651  0.84043696    -0.09100
C1336       C  0.77685199  0.02632762  0.81266487    -0.10700
C1337       C  0.74658440  0.99772954  0.79419657    -0.00500
C1338       C  0.71076681  0.98555765  0.80402863    -0.09600
C1339       C  0.72942089  0.54489535  0.88074307     0.06800
H1340       H  0.79516872  0.56376286  0.85431179     0.08800
H1341       H  0.80484732  0.03641053  0.80585756     0.12200
H1342       H  0.68687168  0.96368576  0.79039368     0.12500
H1343       H  0.67744127  0.99129639  0.83885430     0.08800
C1344       C  0.70345588  0.55318779  0.88042115    -0.10300
C1345       C  0.69222603  0.56022551  0.91057317    -0.09600
C1346       C  0.70648751  0.55882567  0.94160258    -0.00500
C1347       C  0.73486594  0.55385173  0.94163253    -0.10700
C1348       C  0.74641103  0.54715721  0.91142070    -0.09100
H1349       H  0.69023045  0.55201979  0.85709637     0.08800
H1350       H  0.66961567  0.56294530  0.90984764     0.12500
H1351       H  0.74565918  0.55182145  0.96530357     0.12200
H1352       H  0.76640936  0.04073471  0.91243206     0.08800
C1353       C  0.74842588  0.55419531  0.52169871    -0.10300
C1354       C  0.72720313  0.54847140  0.55061261     0.06800
C1355       C  0.69897308  0.05355846  0.54813252    -0.09100
C1356       C  0.69026753  0.06128146  0.51693577    -0.10700
C1357       C  0.70921011  0.56354932  0.48751939    -0.00500
C1358       C  0.73931161  0.56137385  0.49041178    -0.09600
C1359       C  0.73238627  0.03398922  0.58217400     0.06800
H1360       H  0.68247119  0.04981848  0.57003934     0.08800
H1361       H  0.66656829  0.06215814  0.51538373     0.12200
H1362       H  0.75375799  0.56214038  0.46799263     0.12500
H1363       H  0.77023782  0.55029765  0.52272758     0.08800
C1364       C  0.76798603  0.04810337  0.59398678    -0.10300
C1365       C  0.77300516  0.03235304  0.62183755    -0.09600
C1366       C  0.74255791  0.00167713  0.63838357    -0.00500
C1367       C  0.70683701  0.98797301  0.62702726    -0.10700
C1368       C  0.70180283  0.00412198  0.59935870    -0.09100
H1369       H  0.79204576  0.57116424  0.58142394     0.08800
H1370       H  0.80094929  0.04366659  0.62980880     0.12500
H1371       H  0.68282766  0.96449028  0.63921400     0.12200
H1372       H  0.67401549  0.99236067  0.59059998     0.08800
C1373       C  0.91697117  0.96929250  0.61026017    -0.10300
C1374       C  0.94284209  0.50650161  0.60233449     0.06800
C1375       C  0.93599466  0.53201480  0.61289742    -0.09100
C1376       C  0.90399057  0.52043858  0.63130545    -0.10700
C1377       C  0.87840122  0.98318026  0.63946519    -0.00500
C1378       C  0.88512189  0.95776821  0.62832816    -0.09600
C1379       C  0.97646080  0.51795269  0.58283867     0.06800
H1380       H  0.95529220  0.56083664  0.60687119     0.08800
H1381       H  0.89977526  0.54071393  0.63987117     0.12200
H1382       H  0.86622278  0.92889585  0.63436735     0.12500
H1383       H  0.92168808  0.94899810  0.60313080     0.08800
C1384       C  0.51123397  0.55049472  0.59048416    -0.10300
C1385       C  0.54285682  0.55967670  0.57267513    -0.09600
C1386       C  0.53989595  0.53618349  0.54744441    -0.00500
C1387       C  0.50526735  0.50421419  0.53948263    -0.10700
C1388       C  0.97388938  0.49532227  0.55675522    -0.09100
H1389       H  0.51405282  0.56839028  0.61054973     0.08800
H1390       H  0.56945739  0.58473078  0.57867156     0.12500
H1391       H  0.50248800  0.48626862  0.51943405     0.12200
H1392       H  0.94750163  0.47070474  0.54953947     0.08800
C1393       C  0.57691307  0.89293322  0.30819100    -0.10300
C1394       C  0.55121599  0.89841946  0.32166140     0.06800
C1395       C  0.51331568  0.87101604  0.31701016    -0.09100
C1396       C  0.50140863  0.83953091  0.29846873    -0.10700
C1397       C  0.52706045  0.83473179  0.28371288    -0.00500
C1398       C  0.56496008  0.86138076  0.28941081    -0.09600
C1399       C  0.56338377  0.93272029  0.33990217     0.06800
H1400       H  0.49270490  0.87447686  0.32655974     0.08800
H1401       H  0.47202690  0.81965909  0.29452113     0.12200
H1402       H  0.58545578  0.85856258  0.27831101     0.12500
H1403       H  0.60626452  0.91320795  0.31182981     0.08800
C1404       C  0.54259207  0.93123324  0.36741961    -0.10300
C1405       C  0.55183668  0.96323400  0.38320934    -0.09600
C1406       C  0.58232938  0.99749432  0.37223478    -0.00500
C1407       C  0.60412752  0.99946463  0.34556140    -0.10700
C1408       C  0.59459163  0.96718534  0.32933487    -0.09100
H1409       H  0.51910559  0.90526216  0.37686830     0.08800
H1410       H  0.53522799  0.96129632  0.40433864     0.12500
H1411       H  0.62801687  0.52575031  0.33718044     0.12200
H1412       H  0.61104467  0.96927647  0.30805002     0.08800
C1413       C  0.59086696  0.72648922  0.32894713    -0.10300
C1414       C  0.57616034  0.69082551  0.34022318     0.06800
C1415       C  0.54647388  0.66093388  0.32238588    -0.09100
C1416       C  0.03107576  0.66665639  0.29450573    -0.10700
C1417       C  0.54538873  0.70242958  0.28359451    -0.00500
C1418       C  0.57587456  0.73223013  0.30086053    -0.09600
C1419       C  0.58975136  0.68469675  0.37186073     0.06800
H1420       H  0.03424482  0.63310055  0.33074919     0.08800
H1421       H  0.00771267  0.64311746  0.28178511     0.12200
H1422       H  0.58763007  0.76017106  0.29323184     0.12500
H1423       H  0.61379221  0.75000370  0.34211258     0.08800
C1424       C  0.59511799  0.65681462  0.37371915    -0.10300
C1425       C  0.60156056  0.64682944  0.40481379    -0.09600
C1426       C  0.60206986  0.66400274  0.43473181    -0.00500
C1427       C  0.59960510  0.69375597  0.43260711    -0.10700
C1428       C  0.59392199  0.70431180  0.40137351    -0.09100
H1429       H  0.59253649  0.64155670  0.35135152     0.08800
H1430       H  0.60280055  0.62347045  0.40578681     0.12500
H1431       H  0.59902696  0.70681483  0.45540542     0.12200
H1432       H  0.58977805  0.72583861  0.40073341     0.08800
C1433       C  0.64476357  0.71244365  0.58322139    -0.10300
C1434       C  0.66027916  0.74607185  0.56645476     0.06800
C1435       C  0.66809715  0.74803599  0.53174299    -0.09100
C1436       C  0.66277329  0.71780900  0.51478175    -0.10700
C1437       C  0.65020953  0.68532630  0.53232805    -0.00500
C1438       C  0.64025582  0.68252626  0.56642463    -0.09600
C1439       C  0.67311249  0.77989429  0.58618413     0.06800
H1440       H  0.67995947  0.77349607  0.51813367     0.08800
H1441       H  0.67125453  0.72078268  0.48861376     0.12200
H1442       H  0.63112451  0.65794056  0.58054456     0.12500
H1443       H  0.63885569  0.71015587  0.61001433     0.08800
C1444       C  0.65118663  0.77990322  0.61189801    -0.10300
C1445       C  0.66598982  0.80986702  0.63402013    -0.09600
C1446       C  0.70321981  0.83997251  0.63126221    -0.00500
C1447       C  0.72440487  0.84078816  0.60439222    -0.10700
C1448       C  0.70946601  0.81128205  0.58198496    -0.09100
H1449       H  0.62304370  0.75614129  0.61565766     0.08800
H1450       H  0.64911490  0.80836187  0.65463652     0.12500
H1451       H  0.75317022  0.86361615  0.60163210     0.12200
H1452       H  0.72720772  0.81204760  0.56269444     0.08800
C1453       C  0.85013064  0.66677593  0.33471586    -0.10300
C1454       C  0.81817024  0.63119089  0.32938312     0.06800
C1455       C  0.81764066  0.61036427  0.30246674    -0.09100
C1456       C  0.84828879  0.62532927  0.28083295    -0.10700
C1457       C  0.87939380  0.66166326  0.28526118    -0.00500
C1458       C  0.88018489  0.68199237  0.31266404    -0.09600
C1459       C  0.78461299  0.61819087  0.34982669     0.06800
H1460       H  0.79321301  0.58298015  0.29770549     0.08800
H1461       H  0.84680379  0.60937267  0.25949257     0.12200
H1462       H  0.90367962  0.71017688  0.31635874     0.12500
H1463       H  0.85105838  0.68362442  0.35491631     0.08800
C1464       C  0.78694521  0.62183514  0.38515709    -0.10300
C1465       C  0.75810241  0.61798396  0.40382489    -0.09600
C1466       C  0.72673422  0.61099168  0.38740829    -0.00500
C1467       C  0.72319558  0.60471722  0.35243524    -0.10700
C1468       C  0.75173474  0.60786197  0.33382644    -0.09100
H1469       H  0.81202028  0.62982716  0.39804812     0.08800
H1470       H  0.76170677  0.62360943  0.43067091     0.12500
H1471       H  0.69937311  0.59968780  0.33927208     0.12200
H1472       H  0.74936609  0.60523883  0.30661492     0.08800
loop_ 
_geom_bond_atom_site_label_1 
_geom_bond_atom_site_label_2 
_geom_bond_distance 
_geom_bond_site_symmetry_2 
_ccdc_geom_bond_type 
N1            C5   1.363       .  A
N1            C2   1.360       .  A
N1           N36   1.417       .  S
C2            C3   1.380       .  A
C2          C362   1.478       .  S
C3            C4   1.370       .  A
C3            H6   1.082       .  S
C4            C5   1.381       .  A
C4            H7   1.081       .  S
C5           C12   1.472       .  S
N8           C12   1.361       .  A
N8            C9   1.359       .  A
N8           N15   1.415       .  S
C9           C10   1.380       .  A
C9          C333   1.480       .  S
C10          C11   1.372       .  A
C10          H13   1.082       .  S
C11          C12   1.381       .  A
C11          H14   1.081       .  S
N15          C19   1.354       .  A
N15          C16   1.357       .  A
C16          C17   1.389       .  A
C16         C322   1.477       .  S
C17          C18   1.374       .  A
C17          H20   1.083       .  S
C18          C19   1.376       .  A
C18          H21   1.081       .  S
C19          N29   1.436       .  S
N22          C26   1.352       .  A
N22          C23   1.353       .  A
N22          C40   1.437       .  S
C23          C24   1.384       .  A
C23         C670   1.469   1_545  S
C24          C25   1.376       .  A
C24         H395   1.082       .  S
C25          C26   1.382       .  A
C25          H28   1.081       .  S
C26          C33   1.487       .  S
H27         C392   1.083       .  S
N29          C33   1.352       .  A
N29          C30   1.352       .  A
C30          C31   1.383       .  A
C30         C282   1.467       .  S
C31          C32   1.374       .  A
C31          H34   1.082   1_545  S
C32          C33   1.384       .  A
C32          H35   1.081       .  S
N36          C40   1.355       .  A
N36          C37   1.359       .  A
C37          C38   1.388       .  A
C37         C253   1.479       .  S
C38          C39   1.371       .  A
C38         H409   1.083       .  S
C39          C40   1.376       .  A
C39         H410   1.080   1_545  S
H41         C406   1.083       .  S
H42         C407   1.080       .  S
Fe43         O59   2.089       .  S
Fe43         O49   2.102       .  S
Fe43         O56   2.088       .  S
Fe43         O48   2.095       .  S
Fe43         O54   1.984       .  S
Fe44         O47   2.067       .  S
Fe44         O51   2.057       .  S
Fe44         O55   2.055       .  S
Fe44         O60   2.063       .  S
Fe44         O54   1.975       .  S
Fe45         O63   2.044       .  S
Fe45         O50   2.059       .  S
Fe45         O57   2.052       .  S
Fe45         O46   2.049       .  S
Fe45         O54   1.960       .  S
O46          C53   1.266       .  A
O47          C61   1.267       .  A
O48          C53   1.272       .  A
O49          C52   1.276       .  A
O50          C62   1.271       .  A
O51          C64   1.269       .  A
C52         C342   1.484       .  S
C52          O57   1.269       .  A
C53         C193   1.489       .  S
O55          C58   1.268       .  A
O56          C58   1.274       .  A
C58         C233   1.488       .  S
O59          C64   1.275       .  A
O60          C62   1.270       .  A
C61         C273   1.478       .  S
C61          O63   1.264       .  A
C62         C222   1.478       .  S
C64         C262   1.489       .  S
N65          C69   1.354       .  A
N65          C66   1.355       .  A
N65         N100   1.415       .  S
C66          C67   1.388       .  A
C66         C182   1.476       .  S
C67          C68   1.375       .  A
C67          H70   1.083       .  S
C68          C69   1.377       .  A
C68          H71   1.081       .  S
C69          N72   1.435       .  S
N72          C76   1.351       .  A
N72          C73   1.353       .  A
C73          C74   1.384       .  A
C73         C213   1.471       .  S
C74          C75   1.374       .  A
C74          H77   1.082   1_545  S
C75          C76   1.384       .  A
C75          H78   1.079       .  S
C76          C83   1.489       .  S
N79          C83   1.351   1_554  A
N79          C80   1.352       .  A
N79          C90   1.434   1_554  S
C80          C81   1.384       .  A
C80         C521   1.470   1_545  S
C81          C82   1.374   1_554  A
C81         H452   1.082       .  S
C82          C83   1.384       .  A
C82          H85   1.079       .  S
H84         C449   1.082       .  S
N86          C90   1.354       .  A
N86          C87   1.358       .  A
N86          N93   1.417       .  S
C87          C88   1.389       .  A
C87         C242   1.476       .  S
C88          C89   1.371       .  A
C88          H91   1.083   1_545  S
C89          C90   1.376       .  A
C89          H92   1.081   1_546  S
N93          C97   1.364       .  A
N93          C94   1.360   1_556  A
C94          C95   1.380       .  A
C94         C142   1.480       .  S
C95          C96   1.370       .  A
C95          H98   1.082       .  S
C96          C97   1.381   1_554  A
C96          H99   1.082   1_554  S
C97         C104   1.473       .  S
N100        C104   1.364       .  A
N100        C101   1.356       .  A
C101        C102   1.379       .  A
C101        C202   1.476       .  S
C102        C103   1.371       .  A
C102        H105   1.082       .  S
C103        C104   1.382       .  A
C103        H106   1.082       .  S
Fe107       O123   2.087       .  S
Fe107       O113   2.083       .  S
Fe107       O120   2.086       .  S
Fe107       O112   2.088       .  S
Fe107       O118   1.991       .  S
Fe108       O111   2.053       .  S
Fe108       O115   2.059       .  S
Fe108       O119   2.055       .  S
Fe108       O124   2.055       .  S
Fe108       O118   1.969       .  S
Fe109       O127   2.060       .  S
Fe109       O114   2.064       .  S
Fe109       O121   2.057       .  S
Fe109       O110   2.056       .  S
Fe109       O854   1.986   1_455  S
O110        C853   1.268       .  A
O111        C125   1.268       .  A
O112        C117   1.274       .  A
O113        C116   1.273       .  A
O114        C126   1.268       .  A
O115        C128   1.269       .  A
C116        C909   1.487       .  S
C116        O857   1.267       .  A
C117       C1049   1.488       .  S
C117        O846   1.268       .  A
O118       Fe845   1.986       .  S
O119        C122   1.267       .  A
O120        C122   1.271       .  A
O121        C852   1.267       .  A
C122        C353   1.478       .  S
O123        C128   1.273       .  A
O124        C862   1.268       .  A
C125        C898   1.479       .  S
C125        O863   1.267       .  A
C126        C293   1.480       .  S
C126        O860   1.268   1_455  A
O127        C861   1.267       .  A
C128        C133   1.482       .  S
C129        C130   1.403       .  A
C129        C134   1.398       .  A
C129        H139   1.083       .  S
C130        C131   1.405       .  A
C130        C135   1.481       .  S
C131        C132   1.405       .  A
C131        H136   1.083       .  S
C132        C133   1.407       .  A
C132        H137   1.083       .  S
C133        C134   1.405       .  A
C134        H138   1.083       .  S
C135        C140   1.403       .  A
C135        C144   1.405       .  A
C140        C141   1.401       .  A
C140        H145   1.084       .  S
C141        C142   1.405       .  A
C141        H146   1.083       .  S
C142        C143   1.404       .  A
C143        C144   1.402       .  A
C143        H147   1.083   1_554  S
C144        H148   1.083       .  S
C149        C150   1.402       .  A
C149        C154   1.387       .  A
C149        H159   1.083       .  S
C150        C151   1.409       .  A
C150        C155   1.479       .  S
C151        C152   1.403       .  A
C151        H156   1.083       .  S
C152        C153   1.402       .  A
C152        H157   1.083       .  S
C153        C154   1.402       .  A
C153        C448   1.470       .  S
C154        H158   1.084       .  S
C155        C160   1.404       .  A
C155        C164   1.404       .  A
C160        C161   1.390   1_455  A
C160        H165   1.083   1_455  S
C161        C162   1.404   1_655  A
C161        H902   1.083       .  S
C162        C163   1.408       .  A
C162        C861   1.479       .  S
C163        C164   1.400       .  A
C163        H167   1.083       .  S
C164        H168   1.083       .  S
H166        C897   1.083       .  S
C169        C170   1.407       .  A
C169        C910   1.399       .  A
C169        H915   1.083       .  S
C170        C171   1.404       .  A
C170        C175   1.486       .  S
C171        C172   1.401       .  A
C171        H176   1.083       .  S
C172        C173   1.410       .  A
C172        H177   1.083       .  S
C173        C910   1.404       .  A
C173        C852   1.487       .  S
C174        C905   1.399       .  A
C174        C909   1.404       .  A
C174        H178   1.083       .  S
C175        C180   1.407       .  A
C175        C184   1.405       .  A
H179        C905   1.083       .  S
C180        C181   1.402   1_554  A
C180        H185   1.083       .  S
C181        C182   1.404       .  A
C181        H186   1.083       .  S
C182        C183   1.403   1_556  A
C183        C184   1.397       .  A
C183        H187   1.082       .  S
C184        H188   1.083       .  S
C189        C190   1.402       .  A
C189        C194   1.390       .  A
C189        H199   1.083       .  S
C190        C191   1.409       .  A
C190        C195   1.490       .  S
C191        C192   1.411       .  A
C191        H196   1.083       .  S
C192        C193   1.408       .  A
C192        H197   1.082       .  S
C193        C194   1.407       .  A
C194        H198   1.083       .  S
C195        C200   1.408       .  A
C195        C204   1.406       .  A
C200        C201   1.396       .  A
C200        H205   1.083       .  S
C201        C202   1.400       .  A
C201        H206   1.084       .  S
C202        C203   1.405       .  A
C203        C204   1.404       .  A
C203        H207   1.083       .  S
C204        H208   1.083       .  S
C209        C214   1.402       .  A
C209        C946   1.411   1_455  A
C209        H219   1.083       .  S
C210        C211   1.403   1_545  A
C210        C945   1.411       .  A
C210        C215   1.484   1_545  S
C211        C948   1.388       .  A
C211        H584   1.082       .  S
C212        C213   1.402   1_565  A
C212        C947   1.388   1_455  A
C212        H217   1.084       .  S
C213        C214   1.400       .  A
C214        H218   1.083       .  S
C215        C220   1.404   1_565  A
C215        C592   1.407       .  A
H216        C579   1.082       .  S
C220        C221   1.397       .  A
C220        H225   1.083       .  S
C221        C590   1.407   1_545  A
C221        H226   1.083       .  S
C222        C223   1.404       .  A
C222        C589   1.407       .  A
C223        C224   1.394       .  A
C223        H227   1.083       .  S
C224        C583   1.407       .  A
C224        H228   1.082       .  S
C229        C230   1.407       .  A
C229        C234   1.400       .  A
C229        H239   1.083       .  S
C230        C231   1.403       .  A
C230        C603   1.486       .  S
C231        C232   1.399       .  A
C231        H604   1.083       .  S
C232        C233   1.410       .  A
C232        H237   1.083       .  S
C233        C234   1.405       .  A
C234        H238   1.083       .  S
C235        C240   1.405       .  A
C235        C244   1.406       .  A
C235        C598   1.486       .  S
H236        C599   1.083       .  S
C240        C241   1.398       .  A
C240        H245   1.082       .  S
C241        C242   1.404       .  A
C241        H246   1.082       .  S
C242        C243   1.404       .  A
C243        C244   1.400       .  A
C243        H247   1.083       .  S
C244        H616   1.083       .  S
H248        C612   1.083       .  S
C249        C250   1.408       .  A
C249        C254   1.401       .  A
C249        H259   1.083       .  S
C250        C619   1.405       .  A
C250        C623   1.490       .  S
C251        C252   1.400       .  A
C251        C618   1.405       .  A
C251        H256   1.083       .  S
C252        C621   1.405       .  A
C252        H257   1.080       .  S
C253        C254   1.404       .  A
C253        C620   1.405       .  A
C254        H258   1.083       .  S
C255        C260   1.403       .  A
C255        C264   1.409       .  A
C255        C618   1.490       .  S
C260        C261   1.398       .  A
C260        H633   1.083       .  S
C261        C262   1.409       .  A
C261        H266   1.083       .  S
C262        C263   1.405       .  A
C263        C264   1.404       .  A
C263        H267   1.083       .  S
C264        H268   1.083       .  S
H265        C628   1.083       .  S
C269        C274   1.390       .  A
C269        C638   1.404       .  A
C269        H279   1.082       .  S
C270        C271   1.406       .  A
C270        C637   1.404   1_545  A
C270        C275   1.483       .  S
C271        C272   1.401       .  A
C271        H276   1.083       .  S
C272        C641   1.406   1_545  A
C272        H277   1.083       .  S
C273        C274   1.405       .  A
C273        C640   1.406       .  A
C274        H278   1.083       .  S
C275        C284   1.404   1_545  A
C275       C1016   1.410       .  A
C280        C281   1.403       .  A
C280       C1011   1.410   1_455  A
C280        H285   1.083       .  S
C281        C282   1.400       .  A
C281        H286   1.083       .  S
C282        C283   1.400       .  A
C283       C1020   1.387   1_445  A
C283        H287   1.084   1_545  S
C284       C1019   1.387   1_565  A
C284        H288   1.082       .  S
C289        C290   1.405       .  A
C289        C294   1.400       .  A
C289        H299   1.083       .  S
C290        C291   1.407       .  A
C290        C295   1.486       .  S
C291        C292   1.393       .  A
C291        H296   1.082   1_455  S
C292        C293   1.404       .  A
C292        H297   1.083   1_455  S
C293        C294   1.407       .  A
C294        H298   1.083       .  S
C295        C300   1.404       .  A
C295        C304   1.412       .  A
C300        C301   1.389       .  A
C300        H305   1.082       .  S
C301        C302   1.401       .  A
C301        H306   1.084       .  S
C302        C303   1.400       .  A
C302        C391   1.469       .  S
C303        C304   1.403       .  A
C303        H675   1.083       .  S
C304        H308   1.083       .  S
H307        C671   1.083   1_545  S
C309        C310   1.402       .  A
C309        C314   1.399       .  A
C309        H319   1.084       .  S
C310        C311   1.408       .  A
C310        C315   1.488       .  S
C311       C1048   1.402       .  A
C311       H1052   1.082       .  S
C312       C1047   1.402       .  A
C312       C1049   1.405       .  A
C312        H317   1.083       .  S
C313        C314   1.410       .  A
C313       C1048   1.405       .  A
C313        C853   1.488       .  S
C314        H318   1.082       .  S
C315        C320   1.404       .  A
C315        C324   1.408       .  A
H316       C1047   1.082       .  S
C320        C321   1.398       .  A
C320        H325   1.083       .  S
C321        C322   1.405       .  A
C321        H326   1.081       .  S
C322        C323   1.403       .  A
C323        C324   1.401       .  A
C323        H327   1.084       .  S
C324        H328   1.083       .  S
C329        C330   1.407       .  A
C329        C334   1.402       .  A
C329        H339   1.083       .  S
C330        C331   1.408       .  A
C330        C335   1.492       .  S
C331        C332   1.402       .  A
C331        H336   1.082       .  S
C332        C333   1.404       .  A
C332        H337   1.084       .  S
C333        C334   1.403       .  A
C334        H338   1.083       .  S
C335        C340   1.408       .  A
C335        C344   1.406       .  A
C340        C341   1.405       .  A
C340        H345   1.083       .  S
C341        C342   1.406       .  A
C341        H346   1.083       .  S
C342        C343   1.406       .  A
C343        C344   1.398       .  A
C343        H347   1.083       .  S
C344        H348   1.083       .  S
C349        C350   1.405       .  A
C349        C354   1.397       .  A
C349        H359   1.083       .  S
C350        C351   1.407       .  A
C350        C355   1.486       .  S
C351        C352   1.405       .  A
C351        H356   1.083       .  S
C352        C353   1.406       .  A
C352        H357   1.083       .  S
C353        C354   1.403       .  A
C354        H358   1.083       .  S
C355        C360   1.406       .  A
C355        C364   1.405       .  A
C360        C361   1.400       .  A
C360        H365   1.083       .  S
C361        C362   1.403       .  A
C361        H366   1.083       .  S
C362        C363   1.404       .  A
C363        C364   1.401       .  A
C363        H367   1.083       .  S
C364        H368   1.083       .  S
N369        C373   1.363       .  A
N369        C370   1.360       .  A
N369        N404   1.417       .  S
C370        C371   1.380       .  A
C370        C730   1.478       .  S
C371        C372   1.370       .  A
C371        H374   1.082       .  S
C372        C373   1.381       .  A
C372        H375   1.081       .  S
C373        C380   1.472       .  S
N376        C380   1.361       .  A
N376        C377   1.359       .  A
N376        N383   1.415       .  S
C377        C378   1.380       .  A
C377        C701   1.480       .  S
C378        C379   1.372       .  A
C378        H381   1.082       .  S
C379        C380   1.381       .  A
C379        H382   1.081       .  S
N383        C387   1.354       .  A
N383        C384   1.357       .  A
C384        C385   1.389       .  A
C384        C690   1.477       .  S
C385        C386   1.374       .  A
C385        H388   1.083       .  S
C386        C387   1.376       .  A
C386        H389   1.081       .  S
C387        N397   1.436       .  S
N390        C394   1.352       .  A
N390        C391   1.353       .  A
N390        C408   1.437       .  S
C391        C392   1.384       .  A
C392        C393   1.376       .  A
C393        C394   1.382       .  A
C393        H396   1.081       .  S
C394        C401   1.487       .  S
N397        C401   1.352       .  A
N397        C398   1.352       .  A
C398        C399   1.383       .  A
C398        C650   1.467       .  S
C399        C400   1.374       .  A
C399        H402   1.082       .  S
C400        C401   1.384       .  A
C400        H403   1.081       .  S
N404        C408   1.355       .  A
N404        C405   1.359       .  A
C405        C406   1.388       .  A
C405        C621   1.479       .  S
C406        C407   1.371       .  A
C407        C408   1.376       .  A
Fe411       O427   2.089       .  S
Fe411       O417   2.102       .  S
Fe411       O424   2.088       .  S
Fe411       O416   2.095       .  S
Fe411       O422   1.984       .  S
Fe412       O415   2.067       .  S
Fe412       O419   2.057   1_565  S
Fe412       O423   2.055       .  S
Fe412       O428   2.063       .  S
Fe412       O422   1.976       .  S
Fe413       O431   2.044       .  S
Fe413       O418   2.059       .  S
Fe413       O425   2.052       .  S
Fe413       O414   2.049       .  S
Fe413       O422   1.960       .  S
O414        C421   1.266       .  A
O415        C429   1.267       .  A
O416        C421   1.272       .  A
O417        C420   1.276       .  A
O418        C430   1.271       .  A
O419        C432   1.269   1_545  A
C420        C710   1.484       .  S
C420        O425   1.269       .  A
C421        C561   1.489       .  S
O423        C426   1.268       .  A
O424        C426   1.274       .  A
C426        C601   1.488       .  S
O427        C432   1.275       .  A
O428        C430   1.270       .  A
C429        C641   1.478       .  S
C429        O431   1.264       .  A
C430        C590   1.478       .  S
C432        C630   1.489   1_565  S
N433        C437   1.354       .  A
N433        C434   1.355       .  A
N433        N468   1.415       .  S
C434        C435   1.388       .  A
C434        C550   1.476       .  S
C435        C436   1.375       .  A
C435        H438   1.083       .  S
C436        C437   1.377       .  A
C436        H439   1.081       .  S
C437        N440   1.435       .  S
N440        C444   1.351       .  A
N440        C441   1.353       .  A
C441        C442   1.384       .  A
C441        C581   1.471       .  S
C442        C443   1.374       .  A
C442        H445   1.082       .  S
C443        C444   1.384       .  A
C443        H446   1.079       .  S
C444        C451   1.489       .  S
N447        C451   1.351   1_554  A
N447        C448   1.352       .  A
N447        C458   1.434   1_554  S
C448        C449   1.384       .  A
C449        C450   1.374   1_554  A
C450        C451   1.384       .  A
C450        H453   1.079       .  S
N454        C458   1.354       .  A
N454        C455   1.358       .  A
N454        N461   1.417       .  S
C455        C456   1.389       .  A
C455        C610   1.476       .  S
C456        C457   1.371       .  A
C456        H459   1.083       .  S
C457        C458   1.376       .  A
C457        H460   1.081   1_556  S
N461        C465   1.364       .  A
N461        C462   1.360   1_556  A
C462        C463   1.380       .  A
C462        C510   1.480       .  S
C463        C464   1.370       .  A
C463        H466   1.083       .  S
C464        C465   1.381   1_554  A
C464        H467   1.082   1_554  S
C465        C472   1.473       .  S
N468        C472   1.364       .  A
N468        C469   1.356       .  A
C469        C470   1.379       .  A
C469        C570   1.476       .  S
C470        C471   1.371       .  A
C470        H473   1.082       .  S
C471        C472   1.382       .  A
C471        H474   1.082       .  S
Fe475       O491   2.087       .  S
Fe475       O481   2.083       .  S
Fe475       O488   2.086       .  S
Fe475       O480   2.088       .  S
Fe475       O486   1.991       .  S
Fe476       O479   2.053       .  S
Fe476       O483   2.059       .  S
Fe476       O487   2.055       .  S
Fe476       O492   2.055       .  S
Fe476       O486   1.969       .  S
Fe477       O495   2.060       .  S
Fe477       O482   2.064       .  S
Fe477       O489   2.057       .  S
Fe477       O478   2.056       .  S
Fe477      O1222   1.986   1_455  S
O478       C1221   1.268       .  A
O479        C493   1.268       .  A
O480        C485   1.274       .  A
O481        C484   1.273       .  A
O482        C494   1.268       .  A
O483        C496   1.269       .  A
C484       C1277   1.487       .  S
C484       O1225   1.267       .  A
C485       C1417   1.488       .  S
C485       O1214   1.268       .  A
O486      Fe1213   1.986       .  S
O487        C490   1.267       .  A
O488        C490   1.271       .  A
O489       C1220   1.267       .  A
C490        C721   1.478       .  S
O491        C496   1.273       .  A
O492       C1230   1.268       .  A
C493       C1266   1.479       .  S
C493       O1231   1.267       .  A
C494        C661   1.480       .  S
C494       O1228   1.268   1_455  A
O495       C1229   1.267       .  A
C496        C501   1.482       .  S
C497        C498   1.403       .  A
C497        C502   1.398       .  A
C497        H507   1.084       .  S
C498        C499   1.405       .  A
C498        C503   1.481       .  S
C499        C500   1.405       .  A
C499        H504   1.083       .  S
C500        C501   1.407       .  A
C500        H505   1.083       .  S
C501        C502   1.405       .  A
C502        H506   1.083       .  S
C503        C508   1.403       .  A
C503        C512   1.405       .  A
C508        C509   1.401       .  A
C508        H513   1.083       .  S
C509        C510   1.405       .  A
C509        H514   1.083       .  S
C510        C511   1.404       .  A
C511        C512   1.402       .  A
C511        H515   1.084   1_554  S
C512        H516   1.083       .  S
C517        C518   1.402       .  A
C517        C522   1.387       .  A
C517        H527   1.083       .  S
C518        C519   1.409       .  A
C518        C523   1.479       .  S
C519        C520   1.403       .  A
C519        H524   1.083       .  S
C520        C521   1.402       .  A
C520        H525   1.083   1_565  S
C521        C522   1.402       .  A
C522        H526   1.084       .  S
C523        C528   1.404       .  A
C523        C532   1.404       .  A
C528        C529   1.390   1_455  A
C528        H533   1.083   1_455  S
C529        C530   1.404   1_655  A
C529       H1270   1.083       .  S
C530        C531   1.408       .  A
C530       C1229   1.479       .  S
C531        C532   1.400       .  A
C531        H535   1.083       .  S
C532        H536   1.083       .  S
H534       C1265   1.083       .  S
C537        C538   1.407       .  A
C537       C1278   1.399       .  A
C537       H1283   1.083       .  S
C538        C539   1.404       .  A
C538        C543   1.486       .  S
C539        C540   1.401       .  A
C539        H544   1.083       .  S
C540        C541   1.410       .  A
C540        H545   1.083       .  S
C541       C1278   1.404       .  A
C541       C1220   1.487       .  S
C542       C1273   1.399       .  A
C542       C1277   1.404       .  A
C542        H546   1.083       .  S
C543        C548   1.407       .  A
C543        C552   1.405       .  A
H547       C1273   1.083       .  S
C548        C549   1.402   1_554  A
C548        H553   1.083       .  S
C549        C550   1.404       .  A
C549        H554   1.083       .  S
C550        C551   1.403   1_556  A
C551        C552   1.397       .  A
C551        H555   1.082       .  S
C552        H556   1.083       .  S
C557        C558   1.402       .  A
C557        C562   1.390       .  A
C557        H567   1.083       .  S
C558        C559   1.409       .  A
C558        C563   1.490       .  S
C559        C560   1.411       .  A
C559        H564   1.083       .  S
C560        C561   1.408       .  A
C560        H565   1.083       .  S
C561        C562   1.407       .  A
C562        H566   1.083       .  S
C563        C568   1.408       .  A
C563        C572   1.406       .  A
C568        C569   1.396       .  A
C568        H573   1.083       .  S
C569        C570   1.400       .  A
C569        H574   1.084       .  S
C570        C571   1.405       .  A
C571        C572   1.404       .  A
C571        H575   1.083       .  S
C572        H576   1.083       .  S
C577       C1314   1.411   1_455  A
C577        C582   1.403       .  A
C577        H587   1.082       .  S
C578       C1313   1.411       .  A
C578        C579   1.403       .  A
C578        C583   1.484       .  S
C579       C1316   1.388       .  A
C580       C1315   1.388   1_455  A
C580        C581   1.402       .  A
C580        H585   1.084       .  S
C581        C582   1.400       .  A
C582        H586   1.083       .  S
C583        C588   1.404       .  A
C588        C589   1.397       .  A
C588        H593   1.083       .  S
C589        H594   1.083       .  S
C590        C591   1.404       .  A
C591        C592   1.394       .  A
C591        H595   1.083       .  S
C592        H596   1.082       .  S
C597        C598   1.407       .  A
C597        C602   1.400   1_545  A
C597        H607   1.083   1_545  S
C598        C599   1.403       .  A
C599        C600   1.399       .  A
C600        C601   1.410   1_545  A
C600        H605   1.083       .  S
C601        C602   1.405       .  A
C602        H606   1.083       .  S
C603        C608   1.405       .  A
C603        C612   1.406       .  A
C608        C609   1.398       .  A
C608        H613   1.082       .  S
C609        C610   1.404       .  A
C609        H614   1.082       .  S
C610        C611   1.404       .  A
C611        C612   1.400       .  A
C611        H615   1.083       .  S
C617        C618   1.408       .  A
C617        C622   1.401       .  A
C617        H627   1.083       .  S
C619        C620   1.400       .  A
C619        H624   1.083       .  S
C620        H625   1.080       .  S
C621        C622   1.404       .  A
C622        H626   1.083       .  S
C623        C628   1.403       .  A
C623        C632   1.409       .  A
C628        C629   1.398       .  A
C629        C630   1.409       .  A
C629        H634   1.083       .  S
C630        C631   1.405   1_545  A
C631        C632   1.404   1_565  A
C631        H635   1.083       .  S
C632        H636   1.082   1_545  S
C637        C642   1.390       .  A
C637        H647   1.082       .  S
C638        C639   1.406       .  A
C638        C643   1.483       .  S
C639        C640   1.401       .  A
C639        H644   1.083       .  S
C640        H645   1.083       .  S
C641        C642   1.405       .  A
C642        H646   1.083       .  S
C643       C1384   1.410       .  A
C643        C652   1.404       .  A
C648       C1379   1.410   1_455  A
C648        C649   1.403       .  A
C648        H653   1.083       .  S
C649        C650   1.400       .  A
C649        H654   1.083       .  S
C650        C651   1.400       .  A
C651       C1388   1.387   1_455  A
C651        H655   1.084       .  S
C652       C1387   1.387       .  A
C652        H656   1.083       .  S
C657        C658   1.405       .  A
C657        C662   1.400       .  A
C657        H667   1.083       .  S
C658        C659   1.407       .  A
C658        C663   1.486       .  S
C659        C660   1.393       .  A
C659        H664   1.082   1_455  S
C660        C661   1.404       .  A
C660        H665   1.083   1_455  S
C661        C662   1.407       .  A
C662        H666   1.083       .  S
C663        C668   1.404       .  A
C663        C672   1.412       .  A
C668        C669   1.389       .  A
C668        H673   1.082       .  S
C669        C670   1.401       .  A
C669        H674   1.084       .  S
C670        C671   1.400       .  A
C671        C672   1.403       .  A
C672        H676   1.083       .  S
C677        C678   1.402       .  A
C677        C682   1.399       .  A
C677        H687   1.084       .  S
C678        C679   1.408       .  A
C678        C683   1.488       .  S
C679       C1416   1.402       .  A
C679       H1420   1.082       .  S
C680       C1415   1.402       .  A
C680       C1417   1.405       .  A
C680        H685   1.083       .  S
C681       C1416   1.405       .  A
C681        C682   1.410       .  A
C681       C1221   1.488       .  S
C682        H686   1.082       .  S
C683        C688   1.404       .  A
C683        C692   1.408       .  A
H684       C1415   1.082       .  S
C688        C689   1.398       .  A
C688        H693   1.083       .  S
C689        C690   1.405       .  A
C689        H694   1.080       .  S
C690        C691   1.403       .  A
C691        C692   1.401       .  A
C691        H695   1.083       .  S
C692        H696   1.083       .  S
C697        C698   1.407       .  A
C697        C702   1.402       .  A
C697        H707   1.083       .  S
C698        C699   1.408       .  A
C698        C703   1.492       .  S
C699        C700   1.402       .  A
C699        H704   1.082       .  S
C700        C701   1.404       .  A
C700        H705   1.084       .  S
C701        C702   1.403       .  A
C702        H706   1.083       .  S
C703        C708   1.408       .  A
C703        C712   1.406       .  A
C708        C709   1.406       .  A
C708        H713   1.083       .  S
C709        C710   1.406       .  A
C709        H714   1.083       .  S
C710        C711   1.406       .  A
C711        C712   1.398       .  A
C711        H715   1.083       .  S
C712        H716   1.083       .  S
C717        C718   1.405       .  A
C717        C722   1.397       .  A
C717        H727   1.083       .  S
C718        C719   1.407       .  A
C718        C723   1.486       .  S
C719        C720   1.405       .  A
C719        H724   1.083       .  S
C720        C721   1.406       .  A
C720        H725   1.083       .  S
C721        C722   1.403       .  A
C722        H726   1.083       .  S
C723        C728   1.406       .  A
C723        C732   1.405       .  A
C728        C729   1.400       .  A
C728        H733   1.083       .  S
C729        C730   1.403       .  A
C729        H734   1.083       .  S
C730        C731   1.404       .  A
C731        C732   1.401       .  A
C731        H735   1.083       .  S
C732        H736   1.083       .  S
N737        C741   1.363       .  A
N737        C738   1.360       .  A
N737        N772   1.417       .  S
C738        C739   1.380       .  A
C738       C1098   1.478       .  S
C739        C740   1.370       .  A
C739        H742   1.082       .  S
C740        C741   1.381       .  A
C740        H743   1.081       .  S
C741        C748   1.472       .  S
N744        C748   1.361       .  A
N744        C745   1.359       .  A
N744        N751   1.415       .  S
C745        C746   1.381       .  A
C745       C1069   1.480       .  S
C746        C747   1.372       .  A
C746        H749   1.082       .  S
C747        C748   1.381       .  A
C747        H750   1.081       .  S
N751        C755   1.354       .  A
N751        C752   1.357       .  A
C752        C753   1.389       .  A
C752       C1058   1.477       .  S
C753        C754   1.374       .  A
C753        H756   1.083       .  S
C754        C755   1.376       .  A
C754        H757   1.081       .  S
C755        N765   1.436       .  S
N758        C762   1.352       .  A
N758        C759   1.353       .  A
N758        C776   1.437       .  S
C759        C760   1.384       .  A
C759       C1406   1.469   1_545  S
C760        C761   1.376       .  A
C760       H1131   1.083       .  S
C761        C762   1.382       .  A
C761        H764   1.081       .  S
C762        C769   1.487       .  S
H763       C1128   1.083       .  S
N765        C769   1.352       .  A
N765        C766   1.352       .  A
C766        C767   1.383       .  A
C766       C1018   1.467       .  S
C767        C768   1.374       .  A
C767        H770   1.082   1_545  S
C768        C769   1.384       .  A
C768        H771   1.081       .  S
N772        C776   1.355       .  A
N772        C773   1.359       .  A
C773        C774   1.388       .  A
C773        C989   1.479       .  S
C774        C775   1.371       .  A
C774       H1145   1.083       .  S
C775        C776   1.376       .  A
C775       H1146   1.080   1_545  S
H777       C1142   1.083       .  S
H778       C1143   1.080       .  S
Fe779       O795   2.089       .  S
Fe779       O785   2.102       .  S
Fe779       O792   2.088       .  S
Fe779       O784   2.095       .  S
Fe779       O790   1.984       .  S
Fe780       O783   2.067       .  S
Fe780       O787   2.057       .  S
Fe780       O791   2.055       .  S
Fe780       O796   2.063       .  S
Fe780       O790   1.976       .  S
Fe781       O799   2.044       .  S
Fe781       O786   2.059       .  S
Fe781       O793   2.052       .  S
Fe781       O782   2.049       .  S
Fe781       O790   1.960       .  S
O782        C789   1.266       .  A
O783        C797   1.267       .  A
O784        C789   1.272       .  A
O785        C788   1.276       .  A
O786        C798   1.271       .  A
O787        C800   1.269       .  A
C788       C1078   1.484       .  S
C788        O793   1.269       .  A
C789        C929   1.489       .  S
O791        C794   1.268       .  A
O792        C794   1.274       .  A
C794        C969   1.488       .  S
O795        C800   1.275       .  A
O796        C798   1.270       .  A
C797       C1009   1.478       .  S
C797        O799   1.264       .  A
C798        C958   1.478       .  S
C800        C998   1.489       .  S
N801        C805   1.354       .  A
N801        C802   1.355       .  A
N801        N836   1.415       .  S
C802        C803   1.388       .  A
C802        C918   1.476       .  S
C803        C804   1.375       .  A
C803        H806   1.083       .  S
C804        C805   1.377       .  A
C804        H807   1.081       .  S
C805        N808   1.435       .  S
N808        C812   1.351       .  A
N808        C809   1.353       .  A
C809        C810   1.384       .  A
C809        C949   1.471       .  S
C810        C811   1.374       .  A
C810        H813   1.082   1_545  S
C811        C812   1.384       .  A
C811        H814   1.080       .  S
C812        C819   1.489       .  S
N815        C819   1.351   1_554  A
N815        C816   1.352       .  A
N815        C826   1.434   1_554  S
C816        C817   1.384       .  A
C816       C1257   1.470   1_545  S
C817        C818   1.374   1_554  A
C817       H1188   1.082       .  S
C818        C819   1.384       .  A
C818        H821   1.079       .  S
H820       C1185   1.082       .  S
N822        C826   1.354       .  A
N822        C823   1.358       .  A
N822        N829   1.417       .  S
C823        C824   1.389       .  A
C823        C978   1.476       .  S
C824        C825   1.371       .  A
C824        H827   1.083   1_545  S
C825        C826   1.376       .  A
C825        H828   1.081   1_546  S
N829        C833   1.364       .  A
N829        C830   1.360   1_556  A
C830        C831   1.380       .  A
C830        C878   1.480       .  S
C831        C832   1.369       .  A
C831        H834   1.083       .  S
C832        C833   1.381   1_554  A
C832        H835   1.082   1_554  S
C833        C840   1.473       .  S
N836        C840   1.364       .  A
N836        C837   1.356       .  A
C837        C838   1.379       .  A
C837        C938   1.476       .  S
C838        C839   1.371       .  A
C838        H841   1.082       .  S
C839        C840   1.382       .  A
C839        H842   1.082       .  S
Fe843       O859   2.087       .  S
Fe843       O849   2.083       .  S
Fe843       O856   2.086       .  S
Fe843       O848   2.088       .  S
Fe843       O854   1.991       .  S
Fe844       O847   2.053       .  S
Fe844       O851   2.059       .  S
Fe844       O855   2.055       .  S
Fe844       O860   2.055       .  S
Fe844       O854   1.969       .  S
Fe845       O863   2.060       .  S
Fe845       O850   2.064       .  S
Fe845       O857   2.057       .  S
Fe845       O846   2.056       .  S
O847        C861   1.268   1_655  A
O848        C853   1.274   1_655  A
O849        C852   1.273   1_655  A
O850        C862   1.268       .  A
O851        C864   1.269       .  A
O855        C858   1.267       .  A
O856        C858   1.271       .  A
C858       C1089   1.478       .  S
O859        C864   1.273       .  A
C862       C1029   1.480       .  S
C864        C869   1.482       .  S
C865        C866   1.403       .  A
C865        C870   1.398       .  A
C865        H875   1.084       .  S
C866        C867   1.405       .  A
C866        C871   1.481       .  S
C867        C868   1.405       .  A
C867        H872   1.083       .  S
C868        C869   1.407       .  A
C868        H873   1.083       .  S
C869        C870   1.405       .  A
C870        H874   1.083       .  S
C871        C876   1.403       .  A
C871        C880   1.405       .  A
C876        C877   1.401       .  A
C876        H881   1.084       .  S
C877        C878   1.405       .  A
C877        H882   1.083       .  S
C878        C879   1.404       .  A
C879        C880   1.402       .  A
C879        H883   1.083   1_554  S
C880        H884   1.083       .  S
C885        C886   1.402       .  A
C885        C890   1.387       .  A
C885        H895   1.083       .  S
C886        C887   1.409       .  A
C886        C891   1.479       .  S
C887        C888   1.403       .  A
C887        H892   1.082       .  S
C888        C889   1.402       .  A
C888        H893   1.084       .  S
C889        C890   1.402       .  A
C889       C1184   1.470       .  S
C890        H894   1.084       .  S
C891        C896   1.404       .  A
C891        C900   1.404       .  A
C896        C897   1.390       .  A
C896        H901   1.083       .  S
C897        C898   1.404       .  A
C898        C899   1.408       .  A
C899        C900   1.400       .  A
C899        H903   1.083       .  S
C900        H904   1.083       .  S
C905        C906   1.407       .  A
C906        C907   1.404       .  A
C906        C911   1.486       .  S
C907        C908   1.401       .  A
C907        H912   1.083       .  S
C908        C909   1.410       .  A
C908        H913   1.083       .  S
C910        H914   1.083       .  S
C911        C916   1.407       .  A
C911        C920   1.405       .  A
C916        C917   1.402   1_554  A
C916        H921   1.083       .  S
C917        C918   1.404       .  A
C917        H922   1.083       .  S
C918        C919   1.403   1_556  A
C919        C920   1.397       .  A
C919        H923   1.082       .  S
C920        H924   1.083       .  S
C925        C926   1.402       .  A
C925        C930   1.390       .  A
C925        H935   1.083       .  S
C926        C927   1.409       .  A
C926        C931   1.490       .  S
C927        C928   1.411       .  A
C927        H932   1.083       .  S
C928        C929   1.408       .  A
C928        H933   1.082       .  S
C929        C930   1.407       .  A
C930        H934   1.084       .  S
C931        C936   1.408       .  A
C931        C940   1.406       .  A
C936        C937   1.396       .  A
C936        H941   1.083       .  S
C937        C938   1.400       .  A
C937        H942   1.084       .  S
C938        C939   1.405       .  A
C939        C940   1.404       .  A
C939        H943   1.083       .  S
C940        H944   1.083       .  S
C945        C950   1.403       .  A
C945        H955   1.082       .  S
C946        C947   1.403   1_545  A
C946        C951   1.484   1_545  S
C947       H1320   1.082       .  S
C948        C949   1.402   1_565  A
C948        H953   1.084       .  S
C949        C950   1.400       .  A
C950        H954   1.083       .  S
C951        C956   1.404   1_565  A
C951       C1328   1.407       .  A
H952       C1315   1.082       .  S
C956        C957   1.397       .  A
C956        H961   1.083       .  S
C957       C1326   1.407   1_545  A
C957        H962   1.083       .  S
C958       C1325   1.407       .  A
C958        C959   1.404       .  A
C959        C960   1.394       .  A
C959        H963   1.083       .  S
C960       C1319   1.407       .  A
C960        H964   1.082       .  S
C965        C966   1.407       .  A
C965        C970   1.400       .  A
C965        H975   1.083       .  S
C966        C967   1.403       .  A
C966       C1339   1.486       .  S
C967        C968   1.399       .  A
C967       H1340   1.083       .  S
C968        C969   1.410       .  A
C968        H973   1.083       .  S
C969        C970   1.405       .  A
C970        H974   1.083       .  S
C971        C976   1.405       .  A
C971        C980   1.406       .  A
C971       C1334   1.486       .  S
H972       C1335   1.083       .  S
C976        C977   1.398       .  A
C976        H981   1.082       .  S
C977        C978   1.404       .  A
C977        H982   1.082       .  S
C978        C979   1.404       .  A
C979        C980   1.400       .  A
C979        H983   1.083       .  S
C980       H1352   1.083       .  S
H984       C1348   1.083       .  S
C985        C986   1.408       .  A
C985        C990   1.401       .  A
C985        H995   1.083       .  S
C986       C1355   1.405       .  A
C986       C1359   1.490       .  S
C987       C1354   1.405       .  A
C987        C988   1.400       .  A
C987        H992   1.083       .  S
C988       C1357   1.405       .  A
C988        H993   1.080       .  S
C989       C1356   1.405       .  A
C989        C990   1.404       .  A
C990        H994   1.083       .  S
C991        C996   1.403       .  A
C991       C1000   1.409       .  A
C991       C1354   1.490       .  S
C996        C997   1.398       .  A
C996       H1369   1.083       .  S
C997        C998   1.409       .  A
C997       H1002   1.083       .  S
C998        C999   1.405       .  A
C999       C1000   1.404       .  A
C999       H1003   1.083       .  S
C1000      H1004   1.082       .  S
H1001      C1364   1.083       .  S
C1005      C1374   1.404       .  A
C1005      C1010   1.390       .  A
C1005      H1015   1.082       .  S
C1006      C1373   1.404   1_545  A
C1006      C1007   1.406       .  A
C1006      C1011   1.483       .  S
C1007      C1008   1.401       .  A
C1007      H1012   1.083       .  S
C1008      C1377   1.406   1_545  A
C1008      H1013   1.083       .  S
C1009      C1376   1.406       .  A
C1009      C1010   1.405       .  A
C1010      H1014   1.083       .  S
C1011      C1020   1.404   1_545  A
C1016      C1017   1.403       .  A
C1016      H1021   1.083       .  S
C1017      C1018   1.400       .  A
C1017      H1022   1.083       .  S
C1018      C1019   1.400       .  A
C1019      H1023   1.084   1_545  S
C1020      H1024   1.082       .  S
C1025      C1026   1.405       .  A
C1025      C1030   1.400       .  A
C1025      H1035   1.083       .  S
C1026      C1027   1.407       .  A
C1026      C1031   1.486       .  S
C1027      C1028   1.393       .  A
C1027      H1032   1.082       .  S
C1028      C1029   1.404       .  A
C1028      H1033   1.083       .  S
C1029      C1030   1.407       .  A
C1030      H1034   1.083       .  S
C1031      C1036   1.404       .  A
C1031      C1040   1.412       .  A
C1036      C1037   1.389       .  A
C1036      H1041   1.082       .  S
C1037      C1038   1.401       .  A
C1037      H1042   1.084       .  S
C1038      C1039   1.400       .  A
C1038      C1127   1.469       .  S
C1039      C1040   1.403       .  A
C1039      H1411   1.083       .  S
C1040      H1044   1.083       .  S
H1043      C1407   1.083   1_545  S
C1045      C1046   1.402       .  A
C1045      C1050   1.399       .  A
C1045      H1055   1.084       .  S
C1046      C1047   1.408       .  A
C1046      C1051   1.488       .  S
C1048      H1053   1.083       .  S
C1049      C1050   1.410       .  A
C1050      H1054   1.082       .  S
C1051      C1056   1.404       .  A
C1051      C1060   1.408       .  A
C1056      C1057   1.398       .  A
C1056      H1061   1.083       .  S
C1057      C1058   1.405       .  A
C1057      H1062   1.080       .  S
C1058      C1059   1.403       .  A
C1059      C1060   1.401       .  A
C1059      H1063   1.084       .  S
C1060      H1064   1.083       .  S
C1065      C1066   1.407       .  A
C1065      C1070   1.402       .  A
C1065      H1075   1.083       .  S
C1066      C1067   1.408       .  A
C1066      C1071   1.492       .  S
C1067      C1068   1.402       .  A
C1067      H1072   1.082       .  S
C1068      C1069   1.404       .  A
C1068      H1073   1.084       .  S
C1069      C1070   1.403       .  A
C1070      H1074   1.083       .  S
C1071      C1076   1.408       .  A
C1071      C1080   1.406       .  A
C1076      C1077   1.405       .  A
C1076      H1081   1.083       .  S
C1077      C1078   1.406       .  A
C1077      H1082   1.083       .  S
C1078      C1079   1.406       .  A
C1079      C1080   1.398       .  A
C1079      H1083   1.083       .  S
C1080      H1084   1.083       .  S
C1085      C1086   1.405       .  A
C1085      C1090   1.397       .  A
C1085      H1095   1.084       .  S
C1086      C1087   1.407       .  A
C1086      C1091   1.486       .  S
C1087      C1088   1.405       .  A
C1087      H1092   1.083       .  S
C1088      C1089   1.406       .  A
C1088      H1093   1.083       .  S
C1089      C1090   1.403       .  A
C1090      H1094   1.083       .  S
C1091      C1096   1.406       .  A
C1091      C1100   1.405       .  A
C1096      C1097   1.400       .  A
C1096      H1101   1.083       .  S
C1097      C1098   1.403       .  A
C1097      H1102   1.083       .  S
C1098      C1099   1.404       .  A
C1099      C1100   1.401       .  A
C1099      H1103   1.083       .  S
C1100      H1104   1.083       .  S
N1105      C1109   1.362       .  A
N1105      C1106   1.360       .  A
N1105      N1140   1.417       .  S
C1106      C1107   1.380       .  A
C1106      C1466   1.478       .  S
C1107      C1108   1.370       .  A
C1107      H1110   1.082       .  S
C1108      C1109   1.381       .  A
C1108      H1111   1.081       .  S
C1109      C1116   1.472       .  S
N1112      C1116   1.361       .  A
N1112      C1113   1.359       .  A
N1112      N1119   1.415       .  S
C1113      C1114   1.381       .  A
C1113      C1437   1.480       .  S
C1114      C1115   1.372       .  A
C1114      H1117   1.082       .  S
C1115      C1116   1.381       .  A
C1115      H1118   1.081       .  S
N1119      C1123   1.354       .  A
N1119      C1120   1.357       .  A
C1120      C1121   1.389       .  A
C1120      C1426   1.477       .  S
C1121      C1122   1.374       .  A
C1121      H1124   1.083       .  S
C1122      C1123   1.376       .  A
C1122      H1125   1.081       .  S
C1123      N1133   1.436       .  S
N1126      C1130   1.352       .  A
N1126      C1127   1.353       .  A
N1126      C1144   1.437       .  S
C1127      C1128   1.384       .  A
C1128      C1129   1.376       .  A
C1129      C1130   1.382       .  A
C1129      H1132   1.081       .  S
C1130      C1137   1.487       .  S
N1133      C1137   1.352       .  A
N1133      C1134   1.352       .  A
C1134      C1135   1.383       .  A
C1134      C1386   1.467       .  S
C1135      C1136   1.374       .  A
C1135      H1138   1.083       .  S
C1136      C1137   1.384       .  A
C1136      H1139   1.081       .  S
N1140      C1144   1.355       .  A
N1140      C1141   1.359       .  A
C1141      C1142   1.388       .  A
C1141      C1357   1.479       .  S
C1142      C1143   1.371       .  A
C1143      C1144   1.376       .  A
Fe1147     O1163   2.089       .  S
Fe1147     O1153   2.102       .  S
Fe1147     O1160   2.088       .  S
Fe1147     O1152   2.095       .  S
Fe1147     O1158   1.984       .  S
Fe1148     O1151   2.067       .  S
Fe1148     O1155   2.057   1_565  S
Fe1148     O1159   2.055       .  S
Fe1148     O1164   2.063       .  S
Fe1148     O1158   1.975       .  S
Fe1149     O1167   2.044       .  S
Fe1149     O1154   2.059       .  S
Fe1149     O1161   2.052       .  S
Fe1149     O1150   2.049       .  S
Fe1149     O1158   1.960       .  S
O1150      C1157   1.266       .  A
O1151      C1165   1.267       .  A
O1152      C1157   1.272       .  A
O1153      C1156   1.276       .  A
O1154      C1166   1.271       .  A
O1155      C1168   1.269   1_545  A
C1156      C1446   1.484       .  S
C1156      O1161   1.269       .  A
C1157      C1297   1.489       .  S
O1159      C1162   1.268       .  A
O1160      C1162   1.274       .  A
C1162      C1337   1.488       .  S
O1163      C1168   1.275       .  A
O1164      C1166   1.270       .  A
C1165      C1377   1.478       .  S
C1165      O1167   1.264       .  A
C1166      C1326   1.478       .  S
C1168      C1366   1.489   1_565  S
N1169      C1173   1.354       .  A
N1169      C1170   1.355       .  A
N1169      N1204   1.415       .  S
C1170      C1171   1.388       .  A
C1170      C1286   1.476       .  S
C1171      C1172   1.375       .  A
C1171      H1174   1.083       .  S
C1172      C1173   1.377       .  A
C1172      H1175   1.081       .  S
C1173      N1176   1.435       .  S
N1176      C1180   1.351       .  A
N1176      C1177   1.353       .  A
C1177      C1178   1.384       .  A
C1177      C1317   1.471       .  S
C1178      C1179   1.374       .  A
C1178      H1181   1.083       .  S
C1179      C1180   1.384       .  A
C1179      H1182   1.080       .  S
C1180      C1187   1.489       .  S
N1183      C1187   1.351   1_554  A
N1183      C1184   1.352       .  A
N1183      C1194   1.434   1_554  S
C1184      C1185   1.384       .  A
C1185      C1186   1.374   1_554  A
C1186      C1187   1.384       .  A
C1186      H1189   1.080       .  S
N1190      C1194   1.354       .  A
N1190      C1191   1.358       .  A
N1190      N1197   1.417       .  S
C1191      C1192   1.389       .  A
C1191      C1346   1.476       .  S
C1192      C1193   1.371       .  A
C1192      H1195   1.083       .  S
C1193      C1194   1.376       .  A
C1193      H1196   1.081   1_556  S
N1197      C1201   1.364       .  A
N1197      C1198   1.360   1_556  A
C1198      C1199   1.380       .  A
C1198      C1246   1.480       .  S
C1199      C1200   1.370       .  A
C1199      H1202   1.083       .  S
C1200      C1201   1.381   1_554  A
C1200      H1203   1.082   1_554  S
C1201      C1208   1.473       .  S
N1204      C1208   1.364       .  A
N1204      C1205   1.356       .  A
C1205      C1206   1.379       .  A
C1205      C1306   1.476       .  S
C1206      C1207   1.371       .  A
C1206      H1209   1.082       .  S
C1207      C1208   1.382       .  A
C1207      H1210   1.082       .  S
Fe1211     O1227   2.087       .  S
Fe1211     O1217   2.083       .  S
Fe1211     O1224   2.086       .  S
Fe1211     O1216   2.088       .  S
Fe1211     O1222   1.991       .  S
Fe1212     O1215   2.053       .  S
Fe1212     O1219   2.059       .  S
Fe1212     O1223   2.055       .  S
Fe1212     O1228   2.055       .  S
Fe1212     O1222   1.969       .  S
Fe1213     O1231   2.060       .  S
Fe1213     O1218   2.064       .  S
Fe1213     O1225   2.057       .  S
Fe1213     O1214   2.056       .  S
O1215      C1229   1.268   1_655  A
O1216      C1221   1.274   1_655  A
O1217      C1220   1.273   1_655  A
O1218      C1230   1.268       .  A
O1219      C1232   1.269       .  A
O1223      C1226   1.267       .  A
O1224      C1226   1.271       .  A
C1226      C1457   1.478       .  S
O1227      C1232   1.273       .  A
C1230      C1397   1.480       .  S
C1232      C1237   1.482       .  S
C1233      C1234   1.403       .  A
C1233      C1238   1.398       .  A
C1233      H1243   1.084       .  S
C1234      C1235   1.405       .  A
C1234      C1239   1.481       .  S
C1235      C1236   1.405       .  A
C1235      H1240   1.083       .  S
C1236      C1237   1.407       .  A
C1236      H1241   1.083       .  S
C1237      C1238   1.405       .  A
C1238      H1242   1.083       .  S
C1239      C1244   1.403       .  A
C1239      C1248   1.405       .  A
C1244      C1245   1.401       .  A
C1244      H1249   1.083       .  S
C1245      C1246   1.405       .  A
C1245      H1250   1.083       .  S
C1246      C1247   1.404       .  A
C1247      C1248   1.402       .  A
C1247      H1251   1.083   1_554  S
C1248      H1252   1.083       .  S
C1253      C1254   1.402       .  A
C1253      C1258   1.387       .  A
C1253      H1263   1.083       .  S
C1254      C1255   1.409       .  A
C1254      C1259   1.479       .  S
C1255      C1256   1.403       .  A
C1255      H1260   1.083       .  S
C1256      C1257   1.402       .  A
C1256      H1261   1.083   1_565  S
C1257      C1258   1.402       .  A
C1258      H1262   1.084       .  S
C1259      C1264   1.404       .  A
C1259      C1268   1.404       .  A
C1264      C1265   1.390       .  A
C1264      H1269   1.083       .  S
C1265      C1266   1.404       .  A
C1266      C1267   1.408       .  A
C1267      C1268   1.400       .  A
C1267      H1271   1.083       .  S
C1268      H1272   1.083       .  S
C1273      C1274   1.407       .  A
C1274      C1275   1.404       .  A
C1274      C1279   1.486       .  S
C1275      C1276   1.401       .  A
C1275      H1280   1.083       .  S
C1276      C1277   1.410       .  A
C1276      H1281   1.083       .  S
C1278      H1282   1.083       .  S
C1279      C1284   1.407       .  A
C1279      C1288   1.405       .  A
C1284      C1285   1.402   1_554  A
C1284      H1289   1.083       .  S
C1285      C1286   1.404       .  A
C1285      H1290   1.083       .  S
C1286      C1287   1.403   1_556  A
C1287      C1288   1.397       .  A
C1287      H1291   1.082       .  S
C1288      H1292   1.083       .  S
C1293      C1294   1.402       .  A
C1293      C1298   1.390       .  A
C1293      H1303   1.083       .  S
C1294      C1295   1.409       .  A
C1294      C1299   1.490       .  S
C1295      C1296   1.411       .  A
C1295      H1300   1.083       .  S
C1296      C1297   1.408       .  A
C1296      H1301   1.082       .  S
C1297      C1298   1.407       .  A
C1298      H1302   1.083       .  S
C1299      C1304   1.408       .  A
C1299      C1308   1.406       .  A
C1304      C1305   1.396       .  A
C1304      H1309   1.083       .  S
C1305      C1306   1.400       .  A
C1305      H1310   1.084       .  S
C1306      C1307   1.405       .  A
C1307      C1308   1.404       .  A
C1307      H1311   1.083       .  S
C1308      H1312   1.083       .  S
C1313      C1318   1.402       .  A
C1313      H1323   1.083       .  S
C1314      C1315   1.403       .  A
C1314      C1319   1.484       .  S
C1316      C1317   1.402       .  A
C1316      H1321   1.084       .  S
C1317      C1318   1.400       .  A
C1318      H1322   1.083       .  S
C1319      C1324   1.404       .  A
C1324      C1325   1.397       .  A
C1324      H1329   1.082       .  S
C1325      H1330   1.083       .  S
C1326      C1327   1.404       .  A
C1327      C1328   1.394       .  A
C1327      H1331   1.083       .  S
C1328      H1332   1.082       .  S
C1333      C1334   1.407       .  A
C1333      C1338   1.400   1_545  A
C1333      H1343   1.083   1_545  S
C1334      C1335   1.403       .  A
C1335      C1336   1.399       .  A
C1336      C1337   1.410   1_545  A
C1336      H1341   1.083       .  S
C1337      C1338   1.405       .  A
C1338      H1342   1.083       .  S
C1339      C1344   1.405       .  A
C1339      C1348   1.406       .  A
C1344      C1345   1.398       .  A
C1344      H1349   1.082       .  S
C1345      C1346   1.404       .  A
C1345      H1350   1.082       .  S
C1346      C1347   1.404       .  A
C1347      C1348   1.400       .  A
C1347      H1351   1.083       .  S
C1353      C1354   1.408       .  A
C1353      C1358   1.401       .  A
C1353      H1363   1.083       .  S
C1355      C1356   1.400       .  A
C1355      H1360   1.083       .  S
C1356      H1361   1.080       .  S
C1357      C1358   1.404       .  A
C1358      H1362   1.083       .  S
C1359      C1364   1.403       .  A
C1359      C1368   1.409       .  A
C1364      C1365   1.398       .  A
C1365      C1366   1.409       .  A
C1365      H1370   1.083       .  S
C1366      C1367   1.405   1_545  A
C1367      C1368   1.404   1_565  A
C1367      H1371   1.083       .  S
C1368      H1372   1.082   1_545  S
C1373      C1378   1.390       .  A
C1373      H1383   1.082       .  S
C1374      C1375   1.406       .  A
C1374      C1379   1.483       .  S
C1375      C1376   1.401       .  A
C1375      H1380   1.083       .  S
C1376      H1381   1.083       .  S
C1377      C1378   1.405       .  A
C1378      H1382   1.083       .  S
C1379      C1388   1.404       .  A
C1384      C1385   1.403       .  A
C1384      H1389   1.083       .  S
C1385      C1386   1.400       .  A
C1385      H1390   1.083       .  S
C1386      C1387   1.400       .  A
C1387      H1391   1.084       .  S
C1388      H1392   1.083       .  S
C1393      C1394   1.405       .  A
C1393      C1398   1.400       .  A
C1393      H1403   1.083       .  S
C1394      C1395   1.407       .  A
C1394      C1399   1.486       .  S
C1395      C1396   1.393       .  A
C1395      H1400   1.082       .  S
C1396      C1397   1.404       .  A
C1396      H1401   1.083       .  S
C1397      C1398   1.407       .  A
C1398      H1402   1.083       .  S
C1399      C1404   1.404       .  A
C1399      C1408   1.412       .  A
C1404      C1405   1.389       .  A
C1404      H1409   1.082       .  S
C1405      C1406   1.401       .  A
C1405      H1410   1.084       .  S
C1406      C1407   1.400       .  A
C1407      C1408   1.403       .  A
C1408      H1412   1.083       .  S
C1413      C1414   1.402       .  A
C1413      C1418   1.399       .  A
C1413      H1423   1.084       .  S
C1414      C1415   1.408       .  A
C1414      C1419   1.488       .  S
C1416      H1421   1.083       .  S
C1417      C1418   1.410       .  A
C1418      H1422   1.082       .  S
C1419      C1424   1.404       .  A
C1419      C1428   1.408       .  A
C1424      C1425   1.398       .  A
C1424      H1429   1.083       .  S
C1425      C1426   1.405       .  A
C1425      H1430   1.081       .  S
C1426      C1427   1.403       .  A
C1427      C1428   1.401       .  A
C1427      H1431   1.084       .  S
C1428      H1432   1.083       .  S
C1433      C1434   1.407       .  A
C1433      C1438   1.402       .  A
C1433      H1443   1.083       .  S
C1434      C1435   1.408       .  A
C1434      C1439   1.492       .  S
C1435      C1436   1.402       .  A
C1435      H1440   1.082       .  S
C1436      C1437   1.404       .  A
C1436      H1441   1.084       .  S
C1437      C1438   1.403       .  A
C1438      H1442   1.083       .  S
C1439      C1444   1.408       .  A
C1439      C1448   1.406       .  A
C1444      C1445   1.405       .  A
C1444      H1449   1.083       .  S
C1445      C1446   1.406       .  A
C1445      H1450   1.083       .  S
C1446      C1447   1.406       .  A
C1447      C1448   1.398       .  A
C1447      H1451   1.083       .  S
C1448      H1452   1.083       .  S
C1453      C1454   1.405       .  A
C1453      C1458   1.397       .  A
C1453      H1463   1.083       .  S
C1454      C1455   1.407       .  A
C1454      C1459   1.486       .  S
C1455      C1456   1.405       .  A
C1455      H1460   1.083       .  S
C1456      C1457   1.406       .  A
C1456      H1461   1.083       .  S
C1457      C1458   1.403       .  A
C1458      H1462   1.084       .  S
C1459      C1464   1.406       .  A
C1459      C1468   1.405       .  A
C1464      C1465   1.400       .  A
C1464      H1469   1.083       .  S
C1465      C1466   1.403       .  A
C1465      H1470   1.083       .  S
C1466      C1467   1.404       .  A
C1467      C1468   1.401       .  A
C1467      H1471   1.083       .  S
C1468      H1472   1.083       .  S
