geometry optimzed in LAMMPS
_audit_creation_date              2020-11-30 
_audit_creation_method            'lammps2cif' 
_symmetry_space_group_name_H-M    'P1' 
_symmetry_Int_Tables_number       1 
_symmetry_cell_setting            triclinic 
loop_ 
_symmetry_equiv_pos_as_xyz 
  x,y,z 
_cell_length_a                    29.13694752 
_cell_length_b                    29.136305592170363 
_cell_length_c                    29.13626566832364 
_cell_angle_alpha                 89.99864344820107 
_cell_angle_beta                  90.00018821145852 
_cell_angle_gamma                 89.99930066294768 
loop_ 
_atom_site_label 
_atom_site_type_symbol 
_atom_site_fract_x 
_atom_site_fract_y 
_atom_site_fract_z 
_atom_site_charge 
C1          C  0.08862651  0.08861560  0.08861873     0.45200
H2          H  0.10992704  0.10990847  0.10992033    -0.03800
C3          C  0.03925864  0.03924627  0.03924670     0.45200
H4          H  0.01861352  0.01860199  0.01860061    -0.03800
C5          C  0.08377387  0.03736852  0.11022643    -0.17500
C6          C  0.03737897  0.11022396  0.08376859    -0.17300
C7          C  0.11023677  0.08376756  0.03737129    -0.17700
C8          C  0.05489265  0.01037861  0.08337862    -0.17700
C9          C  0.01039074  0.08337677  0.05488194    -0.17200
C10         C  0.08339036  0.05488149  0.01038131    -0.17500
C11         C  0.41316842  0.33861992  0.16316181     0.45200
H12         H  0.39186759  0.35991724  0.14185894    -0.03800
C13         C  0.46253684  0.28925044  0.21253749     0.45200
H14         H  0.48318407  0.26860597  0.23318573    -0.03800
C15         C  0.41802515  0.28737199  0.14155563    -0.17500
C16         C  0.46441524  0.36022892  0.16801731    -0.17300
C17         C  0.39155568  0.33376769  0.21440803    -0.17700
C18         C  0.44690657  0.26038220  0.16840647    -0.17700
C19         C  0.49140285  0.33338199  0.19690493    -0.17200
C20         C  0.41840308  0.30488321  0.24139979    -0.17500
C21         C  0.47379918  0.10345290  0.01904643     0.86200
C22         C  0.00539709  0.13065383  0.48797434    -0.54000
C23         C  0.48804372  0.14476301  0.44792487     0.09100
C24         C  0.43918550  0.12864168  0.43954408     0.20100
C25         C  0.42784372  0.13482236  0.02150485    -0.54800
C26         C  0.40865105  0.14735883  0.47810213     0.09200
C27         C  0.45483352  0.06442209  0.48973286    -0.54300
C28         C  0.44038835  0.07694930  0.44801340     0.09800
H29         H  0.03790892  0.14442741  0.00038366     0.14300
H30         H  0.42865700  0.13749949  0.40455789     0.00100
H31         H  0.40846775  0.13874962  0.05268422     0.14600
H32         H  0.95317374  0.02877347  0.49957960     0.14400
C33         C  0.39832429  0.26904875  0.27798970     0.86200
C34         C  0.37111006  0.23798544  0.24639341    -0.54000
C35         C  0.35699614  0.19793848  0.26374906     0.09100
C36         C  0.37312817  0.18954774  0.31260129     0.20100
C37         C  0.36696594  0.27151065  0.32395085    -0.54800
C38         C  0.35442644  0.22810832  0.34314183     0.09200
C39         C  0.43735170  0.23972631  0.29694884    -0.54300
C40         C  0.42482020  0.19800676  0.31138782     0.09800
H41         H  0.35733282  0.25039933  0.21388400     0.14300
H42         H  0.36426572  0.15455999  0.32312608     0.00100
H43         H  0.36304813  0.30269030  0.34332873     0.14600
H44         H  0.47299972  0.24957396  0.29862256     0.14400
C45         C  0.23273388  0.02800594  0.35344475     0.86200
C46         C  0.26381751  0.49641311  0.38064097    -0.54000
C47         C  0.30386539  0.01377697  0.39474010     0.09100
C48         C  0.31223517  0.06263167  0.37860849     0.20100
C49         C  0.23027768  0.07396303  0.38481370    -0.54800
C50         C  0.27368097  0.09316010  0.39733957     0.09200
C51         C  0.26203236  0.04697661  0.31440548    -0.54300
C52         C  0.30375335  0.06142296  0.32691938     0.09800
H53         H  0.25141513  0.46390216  0.39442476     0.14300
H54         H  0.34722385  0.07315984  0.38745089     0.00100
H55         H  0.19909643  0.09333246  0.38875230     0.14600
H56         H  0.25217654  0.54863099  0.27875924     0.14400
O57         O  0.01944378  0.47327433  0.30745707    -0.78800
C58         C  0.43399309  0.00614348  0.18852461     0.82300
O59         O  0.06008685  0.07520339  0.29920510    -0.79900
O60         O  0.45602314  0.14374816  0.26255734    -0.81400
O61         O  0.35800176  0.01257385  0.29572490    -0.81200
O62         O  0.45256132  0.44166419  0.32522246    -0.79800
Zn63       Zn  0.48753781  0.01421484  0.26422363     1.55700
O64         O  0.35943598  0.08677332  0.27675293    -0.79600
Cd65       Cd  0.41810137  0.00265571  0.32895962     1.59700
Cd66       Cd  0.49909501  0.07894280  0.33364522     1.59600
O67         O  0.41499165  0.02679937  0.39233043    -0.81200
O68         O  0.45350183  0.04824195  0.29824897    -1.91700
Cd69       Cd  0.42281182  0.08364203  0.25264771     1.59900
O70         O  0.48919946  0.04572380  0.39375153    -0.81100
O71         O  0.42656687  0.04919900  0.19165919    -0.79800
C72         C  0.06322661  0.06777791  0.25615003     0.82700
C73         C  0.49561804  0.43853218  0.31779854     0.82400
O74         O  0.44432274  0.48230972  0.22326673    -0.78700
C75         C  0.34093504  0.05287113  0.29637002     0.83200
O76         O  0.02848977  0.05743593  0.23231695    -0.78800
C77         C  0.44890803  0.04639759  0.41082504     0.83300
C78         C  0.45536173  0.16081472  0.30285306     0.83700
O79         O  0.47496651  0.14231365  0.33676284    -0.81300
C80         C  0.33862681  0.16317132  0.41316489     0.45200
H81         H  0.35992777  0.14187760  0.39186486    -0.03800
C82         C  0.28926006  0.21254220  0.46253711     0.45200
H83         H  0.26861481  0.23318705  0.48318408    -0.03800
C84         C  0.28737825  0.14156487  0.41801460    -0.17500
C85         C  0.36023767  0.16801960  0.46441191    -0.17300
C86         C  0.33377603  0.21441851  0.39155698    -0.17700
C87         C  0.26039080  0.16841272  0.44690193    -0.17700
C88         C  0.33339217  0.19690621  0.49140210    -0.17200
C89         C  0.30489517  0.24140946  0.41840507    -0.17500
C90         C  0.10346920  0.01904802  0.47378999     0.86200
C91         C  0.13069033  0.48798791  0.00538517    -0.54000
C92         C  0.14480593  0.44794173  0.48802979     0.09100
C93         C  0.12867179  0.43954783  0.43918165     0.20100
C94         C  0.13482401  0.02151097  0.42782570    -0.54800
C95         C  0.14736772  0.47810884  0.40863754     0.09200
C96         C  0.06444332  0.48971974  0.45483730    -0.54300
C97         C  0.07697971  0.44800054  0.44040199     0.09800
H98         H  0.14446972  0.00040301  0.03789257     0.14300
H99         H  0.13753854  0.40455941  0.42866085     0.00100
H100        H  0.13873975  0.05269121  0.40844658     0.14600
H101        H  0.02879383  0.49956146  0.95316661     0.14400
C102        C  0.26906464  0.27800226  0.39832551     0.86200
C103        C  0.23799380  0.24640471  0.37112169    -0.54000
C104        C  0.19794404  0.26375954  0.35701680     0.09100
C105        C  0.18956042  0.31261267  0.37314578     0.20100
C106        C  0.27151831  0.32396038  0.36695878    -0.54800
C107        C  0.22811353  0.34315003  0.35442664     0.09200
C108        C  0.23975671  0.29696757  0.43735829    -0.54300
C109        C  0.19803405  0.31140235  0.42483649     0.09800
H110        H  0.25040444  0.21389592  0.35734134     0.14300
H111        H  0.15457248  0.32314013  0.36429386     0.00100
H112        H  0.30269597  0.34333835  0.36303086     0.14600
H113        H  0.24961260  0.29863641  0.47300482     0.14400
C114        C  0.02799100  0.35346085  0.23274125     0.86200
C115        C  0.49639181  0.38066629  0.26380854    -0.54000
C116        C  0.01374347  0.39477765  0.30385752     0.09100
C117        C  0.06260098  0.37865336  0.31224330     0.20100
C118        C  0.07394804  0.38482668  0.23028221    -0.54800
C119        C  0.09313895  0.39736474  0.27368461     0.09200
C120        C  0.04695425  0.31443162  0.26205921    -0.54300
C121        C  0.06139617  0.32696030  0.30377814     0.09800
H122        H  0.46388031  0.39443896  0.25139646     0.14300
H123        H  0.07313062  0.38751345  0.34722875     0.00100
H124        H  0.09332703  0.38874792  0.19910365     0.14600
H125        H  0.54861923  0.27878275  0.25221346     0.14400
O126        O  0.48234619  0.22325895  0.44434476    -0.78800
C127        C  0.06781607  0.25611703  0.06327781     0.82300
O128        O  0.44171833  0.32520347  0.45258775    -0.79900
O129        O  0.04580942  0.39373455  0.48924848    -0.81400
O130        O  0.14379068  0.26254418  0.45602548    -0.81200
O131        O  0.04922001  0.19164708  0.42654526    -0.79800
Zn132      Zn  0.01425621  0.26419085  0.48758033     1.55700
O133        O  0.14236083  0.33673920  0.47501586    -0.81200
Cd134      Cd  0.08368124  0.25263568  0.42281594     1.59700
Cd135      Cd  0.00271006  0.32893131  0.41816002     1.59600
O136        O  0.08678845  0.27679803  0.35945324    -0.81200
O137        O  0.04829282  0.29821228  0.45355166    -1.91700
Cd138      Cd  0.07899668  0.33360908  0.49914346     1.59900
O139        O  0.01258499  0.29573855  0.35804177    -0.81100
O140        O  0.07525745  0.29916920  0.06013623    -0.79800
C141        C  0.43857675  0.31777337  0.49564121     0.82700
C142        C  0.00616599  0.18851802  0.43398461     0.82400
O143        O  0.05747012  0.23228351  0.02854114    -0.78700
C144        C  0.16085400  0.30284270  0.45538322     0.83200
O145        O  0.47331076  0.30742468  0.01947660    -0.78800
C146        C  0.05287487  0.29640823  0.34096585     0.83300
C147        C  0.04645089  0.41080218  0.44895135     0.83700
O148        O  0.02684477  0.39229563  0.41504707    -0.81300
C149        C  0.22379735  0.14833779  0.48273661     0.86200
C150        C  0.25539412  0.12113534  0.01380930    -0.54000
C151        C  0.23803899  0.10702685  0.05385824     0.09100
C152        C  0.18918184  0.12314966  0.06223812     0.20100
C153        C  0.17784107  0.11696941  0.48027766    -0.54800
C154        C  0.15864809  0.10443240  0.02368000     0.09200
C155        C  0.20483239  0.18736905  0.01205066    -0.54300
C156        C  0.19038686  0.17484172  0.05376984     0.09800
H157        H  0.28790579  0.10736030  0.50140086     0.14300
H158        H  0.17865434  0.11429240  0.09722485     0.00100
H159        H  0.15846575  0.11304127  0.44909789     0.14600
H160        H  0.20317649  0.22301838  0.00220622     0.14400
C161        C  0.14832018  0.48273705  0.22379299     0.86200
C162        C  0.12110312  0.01379724  0.25539023    -0.54000
C163        C  0.10698626  0.05384412  0.23803665     0.09100
C164        C  0.12311852  0.06223860  0.18918535     0.20100
C165        C  0.11696284  0.48027554  0.17783140    -0.54800
C166        C  0.10442093  0.02367823  0.15864244     0.09200
C167        C  0.18734549  0.01206164  0.20483544    -0.54300
C168        C  0.17481137  0.05378164  0.19039944     0.09800
H169        H  0.10732656  0.50138129  0.28789904     0.14300
H170        H  0.11425271  0.09722611  0.17866154     0.00100
H171        H  0.11304848  0.44909678  0.15845128     0.14600
H172        H  0.22299359  0.00221420  0.20315867     0.14400
C173        C  0.48273812  0.22378458  0.14833556     0.86200
C174        C  0.01381915  0.25537742  0.12113710    -0.54000
C175        C  0.05386713  0.23801388  0.10703678     0.09100
C176        C  0.06223916  0.18915924  0.12316861     0.20100
C177        C  0.48028103  0.17782758  0.11696786    -0.54800
C178        C  0.02368383  0.15863035  0.10444062     0.09200
C179        C  0.01203889  0.20481452  0.18737375    -0.54300
C180        C  0.05375990  0.19036909  0.17485831     0.09800
H181        H  0.50141574  0.28788867  0.10735444     0.14300
H182        H  0.09722772  0.17863028  0.11432398     0.00100
H183        H  0.44909980  0.15845814  0.11303108     0.14600
H184        H  0.00218346  0.20315780  0.22302026     0.14400
O185        O  0.27850060  0.19434548  0.26947062    -0.78800
C186        C  0.24562422  0.31325171  0.18398705     0.82300
O187        O  0.17656559  0.20259211  0.31012785    -0.79900
O188        O  0.10800841  0.23921766  0.20605230    -0.81400
O189        O  0.23920791  0.20605166  0.10803213    -0.81200
O190        O  0.31009607  0.17657210  0.20258308    -0.79800
Zn191      Zn  0.23754984  0.23756987  0.23756509     1.55700
O192        O  0.16500219  0.22498827  0.10945917    -0.81200
Cd193      Cd  0.24910206  0.17283695  0.16814332     1.59700
Cd194      Cd  0.17281438  0.16814880  0.24913918     1.59600
O195        O  0.22496282  0.10947037  0.16502739    -0.81200
O196        O  0.20351311  0.20354381  0.20354098    -1.91700
Cd197      Cd  0.16811313  0.24912885  0.17282881     1.59900
O198        O  0.20601492  0.10803780  0.23923195    -0.81100
O199        O  0.20256797  0.31011902  0.17656312    -0.79800
C200        C  0.18399697  0.24564662  0.31326194     0.82700
C201        C  0.31323693  0.18400166  0.24563748     0.82400
O202        O  0.26945205  0.27851048  0.19432964    -0.78700
C203        C  0.19891516  0.20538826  0.09096012     0.83200
O204        O  0.19433479  0.26947761  0.27852059    -0.78800
C205        C  0.20535263  0.09097276  0.19893561     0.83300
C206        C  0.09094195  0.19892088  0.20540725     0.83700
O207        O  0.10944158  0.16501926  0.22502700    -0.81300
C208        C  0.21253502  0.46253760  0.28924399     0.45200
H209        H  0.23318112  0.48318133  0.26859619    -0.03800
C210        C  0.16316808  0.41316812  0.33861963     0.45200
H211        H  0.14186790  0.39187087  0.35992110    -0.03800
C212        C  0.24140246  0.41840629  0.30487703    -0.17500
C213        C  0.19690346  0.49140656  0.33337479    -0.17300
C214        C  0.16840140  0.44690331  0.26038197    -0.17700
C215        C  0.21441558  0.39155951  0.33376473    -0.17700
C216        C  0.16802279  0.46441630  0.36022563    -0.17200
C217        C  0.14155478  0.41801917  0.28737384    -0.17500
C218        C  0.01906149  0.47378710  0.10345847     0.86200
C219        C  0.48799229  0.00538442  0.13066516    -0.54000
C220        C  0.44794287  0.48803012  0.14477074     0.09100
C221        C  0.43955801  0.43917802  0.12864042     0.20100
C222        C  0.02151638  0.42782762  0.13482315    -0.54800
C223        C  0.47811207  0.40863881  0.14735645     0.09200
C224        C  0.48975130  0.45482441  0.06442625    -0.54300
C225        C  0.44802912  0.44039076  0.07694947     0.09800
H226        H  0.00040304  0.03789306  0.14444512     0.14300
H227        H  0.40457028  0.42865079  0.13749392     0.00100
H228        H  0.05269426  0.40844909  0.13874945     0.14600
H229        H  0.49960551  0.95315482  0.02877938     0.14400
C230        C  0.27799143  0.39832709  0.26904108     0.86200
C231        C  0.24639344  0.37111899  0.23797537    -0.54000
C232        C  0.26374573  0.35700674  0.19792684     0.09100
C233        C  0.31260110  0.37313225  0.18953938     0.20100
C234        C  0.32395044  0.36696278  0.27150063    -0.54800
C235        C  0.34314057  0.35442325  0.22809818     0.09200
C236        C  0.29695157  0.43735564  0.23972081    -0.54300
C237        C  0.31139230  0.42482530  0.19800197     0.09800
H238        H  0.21388286  0.35734564  0.25038805     0.14300
H239        H  0.32312986  0.36427066  0.15455372     0.00100
H240        H  0.34333017  0.36304277  0.30267896     0.14600
H241        H  0.29861537  0.47300485  0.24956441     0.14400
C242        C  0.35347424  0.23273945  0.02799140     0.86200
C243        C  0.38069927  0.26379442  0.49639508    -0.54000
C244        C  0.39481695  0.30384077  0.01374797     0.09100
C245        C  0.37868218  0.31223985  0.06259500     0.20100
C246        C  0.38482724  0.23027648  0.07395710    -0.54800
C247        C  0.39737352  0.27367893  0.09314261     0.09200
C248        C  0.31445053  0.26207228  0.04694126    -0.54300
C249        C  0.32698954  0.30379131  0.06137330     0.09800
H250        H  0.39447796  0.25137652  0.46388872     0.14300
H251        H  0.38755197  0.34722795  0.07311514     0.00100
H252        H  0.38873880  0.19909744  0.09333924     0.14600
H253        H  0.27880064  0.25223186  0.54861642     0.14400
O254        O  0.23233619  0.02853213  0.05743469    -0.78800
C255        C  0.31781216  0.49567622  0.43850050     0.82300
O256        O  0.19170973  0.42657261  0.04918611    -0.79900
O257        O  0.29582033  0.35805674  0.01252482    -0.81400
O258        O  0.39378338  0.48925128  0.04576588    -0.81200
O259        O  0.29921016  0.06013983  0.07524047    -0.79800
Zn260      Zn  0.26424226  0.48760106  0.01419490     1.55700
O261        O  0.39235519  0.41505776  0.02677032    -0.81200
Cd262      Cd  0.33366733  0.49915137  0.07896391     1.59700
Cd263      Cd  0.25270294  0.42285271  0.08361310     1.59600
O264        O  0.33677412  0.47498538  0.14232327    -0.81200
O265        O  0.29828008  0.45357988  0.04822240    -1.91700
Cd266      Cd  0.32899456  0.41818715  0.00263544     1.59900
O267        O  0.26257285  0.45603568  0.14373779    -0.81100
O268        O  0.32526039  0.45262526  0.44164255    -0.79800
C269        C  0.18856685  0.43400854  0.00613372     0.82700
C270        C  0.25615708  0.06327097  0.06779835     0.82400
O271        O  0.30745662  0.01950828  0.47323556    -0.78700
C272        C  0.41084771  0.44895283  0.04640486     0.83200
O273        O  0.22329922  0.44436465  0.48229936    -0.78800
C274        C  0.30286372  0.45537302  0.16081262     0.83300
C275        C  0.29646154  0.34098993  0.05282226     0.83700
O276        O  0.27685007  0.35949360  0.08672495    -0.81300
C277        C  0.08862659  0.08861561  0.58861881     0.45200
H278        H  0.10992693  0.10990836  0.60992033    -0.03800
C279        C  0.03925867  0.03924626  0.53924665     0.45200
H280        H  0.01861365  0.01860207  0.51860057    -0.03800
C281        C  0.08377395  0.03736851  0.61022644    -0.17500
C282        C  0.03737897  0.11022390  0.58376861    -0.17300
C283        C  0.11023683  0.08376752  0.53737135    -0.17700
C284        C  0.05489268  0.01037866  0.58337864    -0.17700
C285        C  0.01039077  0.08337675  0.55488192    -0.17200
C286        C  0.08339044  0.05488146  0.51038132    -0.17500
C287        C  0.41316841  0.33861991  0.66316188     0.45200
H288        H  0.39186758  0.35991730  0.64185900    -0.03800
C289        C  0.46253687  0.28925038  0.71253750     0.45200
H290        H  0.48318408  0.26860598  0.73318563    -0.03800
C291        C  0.41802516  0.28737203  0.64155563    -0.17500
C292        C  0.46441518  0.36022893  0.66801740    -0.17300
C293        C  0.39155565  0.33376761  0.71440807    -0.17700
C294        C  0.44690656  0.26038219  0.66840646    -0.17700
C295        C  0.49140282  0.33338197  0.69690496    -0.17200
C296        C  0.41840311  0.30488316  0.74139981    -0.17500
C297        C  0.47379916  0.10345292  0.51904646     0.86200
C298        C  0.00539720  0.13065379  0.98797427    -0.54000
C299        C  0.48804377  0.14476297  0.94792480     0.09100
C300        C  0.43918550  0.12864174  0.93954406     0.20100
C301        C  0.42784369  0.13482235  0.52150481    -0.54800
C302        C  0.40865110  0.14735890  0.97810213     0.09200
C303        C  0.45483348  0.06442211  0.98973284    -0.54300
C304        C  0.44038826  0.07694934  0.94801340     0.09800
H305        H  0.03790881  0.14442745  0.50038373     0.14300
H306        H  0.42865702  0.13749958  0.90455789     0.00100
H307        H  0.40846764  0.13874977  0.55268426     0.14600
H308        H  0.95317378  0.02877349  0.99957957     0.14400
C309        C  0.39832438  0.26904874  0.77798970     0.86200
C310        C  0.37111010  0.23798545  0.74639342    -0.54000
C311        C  0.35699615  0.19793851  0.76374906     0.09100
C312        C  0.37312826  0.18954777  0.81260128     0.20100
C313        C  0.36696604  0.27151066  0.82395081    -0.54800
C314        C  0.35442652  0.22810836  0.84314182     0.09200
C315        C  0.43735186  0.23972632  0.79694879    -0.54300
C316        C  0.42482031  0.19800681  0.81138776     0.09800
H317        H  0.35733283  0.25039934  0.71388396     0.14300
H318        H  0.36426587  0.15456001  0.82312607     0.00100
H319        H  0.36304820  0.30269040  0.84332869     0.14600
H320        H  0.47299983  0.24957391  0.79862254     0.14400
C321        C  0.23273388  0.02800588  0.85344477     0.86200
C322        C  0.26381750  0.49641311  0.88064101    -0.54000
C323        C  0.30386539  0.01377692  0.89474010     0.09100
C324        C  0.31223511  0.06263161  0.87860846     0.20100
C325        C  0.23027765  0.07396295  0.88481376    -0.54800
C326        C  0.27368098  0.09316007  0.89733955     0.09200
C327        C  0.26203230  0.04697663  0.81440556    -0.54300
C328        C  0.30375335  0.06142283  0.82691935     0.09800
H329        H  0.25141506  0.46390219  0.89442496     0.14300
H330        H  0.34722390  0.07315989  0.88745088     0.00100
H331        H  0.19909646  0.09333231  0.88875231     0.14600
H332        H  0.25217640  0.54863094  0.77875917     0.14400
O333        O  0.01944378  0.47327435  0.80745705    -0.78800
C334        C  0.43399308  0.00614350  0.68852456     0.82300
O335        O  0.06008686  0.07520333  0.79920509    -0.79900
O336        O  0.45602309  0.14374817  0.76255724    -0.81400
O337        O  0.35800180  0.01257368  0.79572479    -0.81200
O338        O  0.45256146  0.44166438  0.82522239    -0.79800
Zn339      Zn  0.48753782  0.01421485  0.76422371     1.55700
O340        O  0.35943613  0.08677321  0.77675313    -0.79600
Cd341      Cd  0.41810136  0.00265569  0.82895956     1.59700
Cd342      Cd  0.49909500  0.07894288  0.83364541     1.59600
O343        O  0.41499155  0.02679950  0.89233034    -0.81200
O344        O  0.45350189  0.04824197  0.79824900    -1.91700
Cd345      Cd  0.42281183  0.08364195  0.75264767     1.59900
O346        O  0.48919941  0.04572371  0.89375168    -0.81100
O347        O  0.42656674  0.04919899  0.69165912    -0.79800
C348        C  0.06322660  0.06777792  0.75615001     0.82700
C349        C  0.49561818  0.43853223  0.81779849     0.82400
O350        O  0.44432270  0.48230986  0.72326673    -0.78700
C351        C  0.34093507  0.05287097  0.79636998     0.83200
O352        O  0.02848974  0.05743602  0.73231692    -0.78800
C353        C  0.44890794  0.04639761  0.91082508     0.83300
C354        C  0.45536181  0.16081478  0.80285296     0.83700
O355        O  0.47496651  0.14231372  0.83676277    -0.81300
C356        C  0.33862684  0.16317134  0.91316485     0.45200
H357        H  0.35992776  0.14187765  0.89186484    -0.03800
C358        C  0.28926006  0.21254219  0.96253707     0.45200
H359        H  0.26861481  0.23318701  0.98318402    -0.03800
C360        C  0.28737825  0.14156489  0.91801453    -0.17500
C361        C  0.36023768  0.16801963  0.96441189    -0.17300
C362        C  0.33377607  0.21441855  0.89155697    -0.17700
C363        C  0.26039081  0.16841273  0.94690186    -0.17700
C364        C  0.33339218  0.19690623  0.99140207    -0.17200
C365        C  0.30489520  0.24140949  0.91840506    -0.17500
C366        C  0.10346913  0.01904804  0.97379004     0.86200
C367        C  0.13069033  0.48798801  0.50538512    -0.54000
C368        C  0.14480592  0.44794164  0.98802981     0.09100
C369        C  0.12867176  0.43954774  0.93918165     0.20100
C370        C  0.13482389  0.02151111  0.92782570    -0.54800
C371        C  0.14736768  0.47810875  0.90863755     0.09200
C372        C  0.06444337  0.48971963  0.95483745    -0.54300
C373        C  0.07697971  0.44800047  0.94040200     0.09800
H374        H  0.14446983  0.00040306  0.53789247     0.14300
H375        H  0.13753846  0.40455931  0.92866087     0.00100
H376        H  0.13873964  0.05269127  0.90844672     0.14600
H377        H  0.02879377  0.49956153  0.45316644     0.14400
C378        C  0.26906468  0.27800227  0.89832550     0.86200
C379        C  0.23799393  0.24640480  0.87112158    -0.54000
C380        C  0.19794417  0.26375955  0.85701673     0.09100
C381        C  0.18956049  0.31261265  0.87314580     0.20100
C382        C  0.27151841  0.32396049  0.86695886    -0.54800
C383        C  0.22811354  0.34315007  0.85442671     0.09200
C384        C  0.23975670  0.29696748  0.93735829    -0.54300
C385        C  0.19803406  0.31140232  0.92483652     0.09800
H386        H  0.25040468  0.21389592  0.85734109     0.14300
H387        H  0.15457245  0.32314008  0.86429387     0.00100
H388        H  0.30269588  0.34333835  0.86303103     0.14600
H389        H  0.24961259  0.29863636  0.97300479     0.14400
C390        C  0.02799105  0.35346082  0.73274125     0.86200
C391        C  0.49639179  0.38066629  0.76380854    -0.54000
C392        C  0.01374350  0.39477769  0.80385752     0.09100
C393        C  0.06260098  0.37865337  0.81224329     0.20100
C394        C  0.07394813  0.38482661  0.73028214    -0.54800
C395        C  0.09313898  0.39736470  0.77368460     0.09200
C396        C  0.04695423  0.31443152  0.76205923    -0.54300
C397        C  0.06139611  0.32696032  0.80377818     0.09800
H398        H  0.46388040  0.39443899  0.75139650     0.14300
H399        H  0.07313064  0.38751351  0.84722877     0.00100
H400        H  0.09332706  0.38874783  0.69910369     0.14600
H401        H  0.54861925  0.27878283  0.75221363     0.14400
O402        O  0.48234616  0.22325889  0.94434469    -0.78800
C403        C  0.06781616  0.25611699  0.56327781     0.82300
O404        O  0.44171822  0.32520363  0.95258773    -0.79900
O405        O  0.04580938  0.39373457  0.98924848    -0.81400
O406        O  0.14379072  0.26254419  0.95602547    -0.81200
O407        O  0.04922008  0.19164719  0.92654538    -0.79800
Zn408      Zn  0.01425626  0.26419077  0.98758039     1.55700
O409        O  0.14236088  0.33673917  0.97501604    -0.81200
Cd410      Cd  0.08368139  0.25263578  0.92281586     1.59700
Cd411      Cd  0.00271001  0.32893123  0.91816001     1.59600
O412        O  0.08678853  0.27679816  0.85945319    -0.81200
O413        O  0.04829284  0.29821221  0.95355164    -1.91700
Cd414      Cd  0.07899663  0.33360913  0.99914340     1.59900
O415        O  0.01258502  0.29573855  0.85804181    -0.81100
O416        O  0.07525744  0.29916919  0.56013632    -0.79800
C417        C  0.43857663  0.31777347  0.99564121     0.82700
C418        C  0.00616603  0.18851803  0.93398461     0.82400
O419        O  0.05747032  0.23228356  0.52854105    -0.78700
C420        C  0.16085406  0.30284268  0.95538332     0.83200
O421        O  0.47331093  0.30742481  0.51947665    -0.78800
C422        C  0.05287488  0.29640827  0.84096585     0.83300
C423        C  0.04645091  0.41080212  0.94895132     0.83700
O424        O  0.02684480  0.39229554  0.91504706    -0.81300
C425        C  0.22379738  0.14833777  0.98273656     0.86200
C426        C  0.25539408  0.12113539  0.51380936    -0.54000
C427        C  0.23803897  0.10702696  0.55385831     0.09100
C428        C  0.18918180  0.12314971  0.56223824     0.20100
C429        C  0.17784106  0.11696942  0.98027755    -0.54800
C430        C  0.15864810  0.10443244  0.52368006     0.09200
C431        C  0.20483235  0.18736898  0.51205075    -0.54300
C432        C  0.19038679  0.17484177  0.55376987     0.09800
H433        H  0.28790583  0.10736025  0.00140084     0.14300
H434        H  0.17865435  0.11429253  0.59722484     0.00100
H435        H  0.15846576  0.11304144  0.94909789     0.14600
H436        H  0.20317651  0.22301856  0.50220627     0.14400
C437        C  0.14832020  0.48273702  0.72379300     0.86200
C438        C  0.12110313  0.01379720  0.75539030    -0.54000
C439        C  0.10698629  0.05384409  0.73803667     0.09100
C440        C  0.12311864  0.06223854  0.68918540     0.20100
C441        C  0.11696285  0.48027560  0.67783147    -0.54800
C442        C  0.10442105  0.02367822  0.65864245     0.09200
C443        C  0.18734556  0.01206156  0.70483555    -0.54300
C444        C  0.17481148  0.05378155  0.69039943     0.09800
H445        H  0.10732643  0.50138107  0.78789902     0.14300
H446        H  0.11425283  0.09722616  0.67866159     0.00100
H447        H  0.11304837  0.44909661  0.65845124     0.14600
H448        H  0.22299362  0.00221402  0.70315875     0.14400
C449        C  0.48273805  0.22378453  0.64833553     0.86200
C450        C  0.01381913  0.25537737  0.62113704    -0.54000
C451        C  0.05386710  0.23801379  0.60703673     0.09100
C452        C  0.06223915  0.18915917  0.62316858     0.20100
C453        C  0.48028096  0.17782750  0.61696784    -0.54800
C454        C  0.02368383  0.15863025  0.60444067     0.09200
C455        C  0.01203895  0.20481449  0.68737366    -0.54300
C456        C  0.05375993  0.19036909  0.67485828     0.09800
H457        H  0.50141569  0.28788862  0.60735442     0.14300
H458        H  0.09722775  0.17863027  0.61432401     0.00100
H459        H  0.44909971  0.15845810  0.61303098     0.14600
H460        H  0.00218358  0.20315777  0.72302037     0.14400
O461        O  0.27850055  0.19434567  0.76947052    -0.78800
C462        C  0.24562421  0.31325174  0.68398706     0.82300
O463        O  0.17656558  0.20259224  0.81012772    -0.79900
O464        O  0.10800852  0.23921770  0.70605212    -0.81400
O465        O  0.23920797  0.20605162  0.60803209    -0.81200
O466        O  0.31009611  0.17657203  0.70258308    -0.79800
Zn467      Zn  0.23754973  0.23756996  0.73756502     1.55700
O468        O  0.16500230  0.22498846  0.60945913    -0.81200
Cd469      Cd  0.24910219  0.17283701  0.66814325     1.59700
Cd470      Cd  0.17281435  0.16814887  0.74913909     1.59600
O471        O  0.22496276  0.10947047  0.66502733    -0.81200
O472        O  0.20351319  0.20354376  0.70354089    -1.91700
Cd473      Cd  0.16811332  0.24912881  0.67282875     1.59900
O474        O  0.20601481  0.10803775  0.73923190    -0.81100
O475        O  0.20256799  0.31011909  0.67656303    -0.79800
C476        C  0.18399705  0.24564673  0.81326186     0.82700
C477        C  0.31323690  0.18400173  0.74563746     0.82400
O478        O  0.26945197  0.27851047  0.69432972    -0.78700
C479        C  0.19891518  0.20538828  0.59096015     0.83200
O480        O  0.19433477  0.26947776  0.77852052    -0.78800
C481        C  0.20535267  0.09097271  0.69893556     0.83300
C482        C  0.09094200  0.19892091  0.70540716     0.83700
O483        O  0.10944158  0.16501934  0.72502698    -0.81300
C484        C  0.21253497  0.46253757  0.78924401     0.45200
H485        H  0.23318113  0.48318130  0.76859615    -0.03800
C486        C  0.16316807  0.41316808  0.83861963     0.45200
H487        H  0.14186790  0.39187078  0.85992114    -0.03800
C488        C  0.24140244  0.41840630  0.80487704    -0.17500
C489        C  0.19690341  0.49140652  0.83337482    -0.17300
C490        C  0.16840140  0.44690326  0.76038196    -0.17700
C491        C  0.21441558  0.39155953  0.83376478    -0.17700
C492        C  0.16802275  0.46441625  0.86022564    -0.17200
C493        C  0.14155478  0.41801913  0.78737384    -0.17500
C494        C  0.01906152  0.47378711  0.60345850     0.86200
C495        C  0.48799219  0.00538455  0.63066515    -0.54000
C496        C  0.44794290  0.48803018  0.64477079     0.09100
C497        C  0.43955795  0.43917804  0.62864049     0.20100
C498        C  0.02151638  0.42782757  0.63482314    -0.54800
C499        C  0.47811203  0.40863879  0.64735647     0.09200
C500        C  0.48975120  0.45482451  0.56442631    -0.54300
C501        C  0.44802904  0.44039081  0.57694953     0.09800
H502        H  0.00040296  0.03789315  0.64444502     0.14300
H503        H  0.40457028  0.42865084  0.63749408     0.00100
H504        H  0.05269425  0.40844898  0.63874940     0.14600
H505        H  0.49960555  0.95315484  0.52877953     0.14400
C506        C  0.27799145  0.39832713  0.76904108     0.86200
C507        C  0.24639346  0.37111906  0.73797535    -0.54000
C508        C  0.26374576  0.35700674  0.69792684     0.09100
C509        C  0.31260113  0.37313220  0.68953932     0.20100
C510        C  0.32395037  0.36696272  0.77150061    -0.54800
C511        C  0.34314052  0.35442316  0.72809821     0.09200
C512        C  0.29695167  0.43735568  0.73972079    -0.54300
C513        C  0.31139235  0.42482530  0.69800195     0.09800
H514        H  0.21388291  0.35734572  0.75038802     0.14300
H515        H  0.32312981  0.36427058  0.65455382     0.00100
H516        H  0.34333014  0.36304267  0.80267900     0.14600
H517        H  0.29861535  0.47300490  0.74956431     0.14400
C518        C  0.35347423  0.23273943  0.52799146     0.86200
C519        C  0.38069922  0.26379453  0.99639516    -0.54000
C520        C  0.39481707  0.30384064  0.51374799     0.09100
C521        C  0.37868226  0.31223986  0.56259497     0.20100
C522        C  0.38482723  0.23027652  0.57395712    -0.54800
C523        C  0.39737354  0.27367893  0.59314262     0.09200
C524        C  0.31445054  0.26207229  0.54694135    -0.54300
C525        C  0.32698958  0.30379136  0.56137324     0.09800
H526        H  0.39447811  0.25137651  0.96388860     0.14300
H527        H  0.38755213  0.34722785  0.57311510     0.00100
H528        H  0.38873878  0.19909737  0.59333932     0.14600
H529        H  0.27880063  0.25223183  0.04861629     0.14400
O530        O  0.23233613  0.02853229  0.55743464    -0.78800
C531        C  0.31781221  0.49567620  0.93850047     0.82300
O532        O  0.19170973  0.42657255  0.54918607    -0.79900
O533        O  0.29582026  0.35805686  0.51252486    -0.81400
O534        O  0.39378329  0.48925118  0.54576578    -0.81200
O535        O  0.29921007  0.06013996  0.57524063    -0.79800
Zn536      Zn  0.26424229  0.48760096  0.51419500     1.55700
O537        O  0.39235526  0.41505764  0.52677028    -0.81200
Cd538      Cd  0.33366729  0.49915131  0.57896388     1.59700
Cd539      Cd  0.25270290  0.42285277  0.58361308     1.59600
O540        O  0.33677420  0.47498528  0.64232318    -0.81200
O541        O  0.29828011  0.45357981  0.54822239    -1.91700
Cd542      Cd  0.32899470  0.41818710  0.50263539     1.59900
O543        O  0.26257288  0.45603581  0.64373776    -0.81100
O544        O  0.32526033  0.45262522  0.94164258    -0.79800
C545        C  0.18856686  0.43400858  0.50613369     0.82700
C546        C  0.25615701  0.06327109  0.56779841     0.82400
O547        O  0.30745656  0.01950823  0.97323557    -0.78700
C548        C  0.41084766  0.44895277  0.54640487     0.83200
O549        O  0.22329922  0.44436460  0.98229935    -0.78800
C550        C  0.30286376  0.45537303  0.66081256     0.83300
C551        C  0.29646153  0.34099000  0.55282227     0.83700
O552        O  0.27684994  0.35949356  0.58672496    -0.81300
C553        C  0.08862649  0.58861561  0.08861873     0.45200
H554        H  0.10992692  0.60990842  0.10992029    -0.03800
C555        C  0.03925859  0.53924629  0.03924668     0.45200
H556        H  0.01861344  0.51860205  0.01860054    -0.03800
C557        C  0.08377387  0.53736853  0.11022640    -0.17500
C558        C  0.03737896  0.61022397  0.08376857    -0.17300
C559        C  0.11023671  0.58376756  0.03737127    -0.17700
C560        C  0.05489261  0.51037866  0.08337862    -0.17700
C561        C  0.01039072  0.58337680  0.05488193    -0.17200
C562        C  0.08339034  0.55488143  0.01038130    -0.17500
C563        C  0.41316839  0.83861991  0.16316179     0.45200
H564        H  0.39186762  0.85991722  0.14185897    -0.03800
C565        C  0.46253681  0.78925042  0.21253750     0.45200
H566        H  0.48318407  0.76860593  0.23318574    -0.03800
C567        C  0.41802514  0.78737196  0.14155564    -0.17500
C568        C  0.46441523  0.86022888  0.16801732    -0.17300
C569        C  0.39155563  0.83376765  0.21440801    -0.17700
C570        C  0.44690654  0.76038216  0.16840649    -0.17700
C571        C  0.49140284  0.83338195  0.19690495    -0.17200
C572        C  0.41840307  0.80488322  0.24139980    -0.17500
C573        C  0.47379919  0.60345296  0.01904646     0.86200
C574        C  0.00539714  0.63065379  0.48797432    -0.54000
C575        C  0.48804382  0.64476295  0.44792482     0.09100
C576        C  0.43918555  0.62864170  0.43954409     0.20100
C577        C  0.42784366  0.63482236  0.02150490    -0.54800
C578        C  0.40865114  0.64735890  0.47810214     0.09200
C579        C  0.45483351  0.56442203  0.48973286    -0.54300
C580        C  0.44038826  0.57694930  0.44801339     0.09800
H581        H  0.03790884  0.64442750  0.00038371     0.14300
H582        H  0.42865706  0.63749960  0.40455790     0.00100
H583        H  0.40846772  0.63874967  0.05268417     0.14600
H584        H  0.95317376  0.52877353  0.49957957     0.14400
C585        C  0.39832435  0.76904881  0.27798973     0.86200
C586        C  0.37111012  0.73798548  0.24639351    -0.54000
C587        C  0.35699617  0.69793855  0.26374907     0.09100
C588        C  0.37312822  0.68954785  0.31260131     0.20100
C589        C  0.36696601  0.77151074  0.32395088    -0.54800
C590        C  0.35442650  0.72810842  0.34314186     0.09200
C591        C  0.43735175  0.73972634  0.29694885    -0.54300
C592        C  0.42482025  0.69800681  0.31138780     0.09800
H593        H  0.35733281  0.75039941  0.21388388     0.14300
H594        H  0.36426572  0.65456001  0.32312611     0.00100
H595        H  0.36304822  0.80269043  0.34332876     0.14600
H596        H  0.47299987  0.74957398  0.29862255     0.14400
C597        C  0.23273394  0.52800592  0.35344473     0.86200
C598        C  0.26381745  0.99641321  0.38064103    -0.54000
C599        C  0.30386540  0.51377693  0.39474011     0.09100
C600        C  0.31223521  0.56263163  0.37860852     0.20100
C601        C  0.23027777  0.57396295  0.38481372    -0.54800
C602        C  0.27368103  0.59316007  0.39733959     0.09200
C603        C  0.26203239  0.54697668  0.31440548    -0.54300
C604        C  0.30375342  0.56142293  0.32691940     0.09800
H605        H  0.25141507  0.96390222  0.39442486     0.14300
H606        H  0.34722390  0.57315982  0.38745096     0.00100
H607        H  0.19909644  0.59333240  0.38875229     0.14600
H608        H  0.25217653  0.04863090  0.27875925     0.14400
O609        O  0.01944382  0.97327428  0.30745704    -0.78800
C610        C  0.43399309  0.50614344  0.18852460     0.82300
O611        O  0.06008686  0.57520342  0.29920508    -0.79900
O612        O  0.45602319  0.64374812  0.26255736    -0.81400
O613        O  0.35800182  0.51257376  0.29572489    -0.81200
O614        O  0.45256134  0.94166418  0.32522245    -0.79800
Zn615      Zn  0.48753772  0.51421486  0.26422366     1.55700
O616        O  0.35943606  0.58677324  0.27675295    -0.79600
Cd617      Cd  0.41810141  0.50265570  0.32895962     1.59700
Cd618      Cd  0.49909508  0.57894296  0.33364527     1.59600
O619        O  0.41499154  0.52679929  0.39233044    -0.81200
O620        O  0.45350185  0.54824205  0.29824902    -1.91700
Cd621      Cd  0.42281186  0.58364198  0.25264771     1.59900
O622        O  0.48919932  0.54572374  0.39375151    -0.81100
O623        O  0.42656668  0.54919893  0.19165920    -0.79800
C624        C  0.06322662  0.56777793  0.25615001     0.82700
C625        C  0.49561806  0.93853214  0.31779852     0.82400
O626        O  0.44432257  0.98230973  0.22326677    -0.78700
C627        C  0.34093511  0.55287105  0.29637002     0.83200
O628        O  0.02848980  0.55743589  0.23231694    -0.78800
C629        C  0.44890789  0.54639756  0.41082503     0.83300
C630        C  0.45536178  0.66081475  0.30285306     0.83700
O631        O  0.47496663  0.64231382  0.33676285    -0.81300
C632        C  0.33862686  0.66317138  0.41316489     0.45200
H633        H  0.35992785  0.64187762  0.39186482    -0.03800
C634        C  0.28926005  0.71254221  0.46253714     0.45200
H635        H  0.26861488  0.73318693  0.48318403    -0.03800
C636        C  0.28737830  0.64156489  0.41801459    -0.17500
C637        C  0.36023772  0.66801964  0.46441190    -0.17300
C638        C  0.33377608  0.71441859  0.39155702    -0.17700
C639        C  0.26039084  0.66841273  0.44690193    -0.17700
C640        C  0.33339219  0.69690621  0.49140211    -0.17200
C641        C  0.30489518  0.74140950  0.41840509    -0.17500
C642        C  0.10346915  0.51904803  0.47378999     0.86200
C643        C  0.13069029  0.98798801  0.00538518    -0.54000
C644        C  0.14480591  0.94794169  0.48802982     0.09100
C645        C  0.12867178  0.93954777  0.43918167     0.20100
C646        C  0.13482394  0.52151105  0.42782569    -0.54800
C647        C  0.14736774  0.97810878  0.40863756     0.09200
C648        C  0.06444339  0.98971973  0.45483731    -0.54300
C649        C  0.07697972  0.94800054  0.44040197     0.09800
H650        H  0.14446986  0.50040299  0.03789253     0.14300
H651        H  0.13753849  0.90455935  0.42866088     0.00100
H652        H  0.13873970  0.55269127  0.40844666     0.14600
H653        H  0.02879380  0.99956158  0.95316656     0.14400
C654        C  0.26906462  0.77800225  0.39832550     0.86200
C655        C  0.23799380  0.74640468  0.37112169    -0.54000
C656        C  0.19794405  0.76375955  0.35701682     0.09100
C657        C  0.18956039  0.81261270  0.37314576     0.20100
C658        C  0.27151836  0.82396045  0.36695879    -0.54800
C659        C  0.22811352  0.84315007  0.35442663     0.09200
C660        C  0.23975672  0.79696755  0.43735829    -0.54300
C661        C  0.19803408  0.81140239  0.42483649     0.09800
H662        H  0.25040444  0.71389592  0.35734131     0.14300
H663        H  0.15457255  0.82314010  0.36429388     0.00100
H664        H  0.30269582  0.84333831  0.36303096     0.14600
H665        H  0.24961259  0.79863639  0.47300475     0.14400
C666        C  0.02799100  0.85346083  0.23274125     0.86200
C667        C  0.49639187  0.88066621  0.26380855    -0.54000
C668        C  0.01374348  0.89477761  0.30385752     0.09100
C669        C  0.06260098  0.87865337  0.31224331     0.20100
C670        C  0.07394803  0.88482670  0.23028220    -0.54800
C671        C  0.09313891  0.89736478  0.27368460     0.09200
C672        C  0.04695421  0.81443161  0.26205925    -0.54300
C673        C  0.06139616  0.82696030  0.30377816     0.09800
H674        H  0.46388022  0.89443886  0.25139645     0.14300
H675        H  0.07313060  0.88751355  0.34722872     0.00100
H676        H  0.09332704  0.88874791  0.19910370     0.14600
H677        H  0.54861920  0.77878273  0.25221357     0.14400
O678        O  0.48234621  0.72325890  0.44434479    -0.78800
C679        C  0.06781613  0.75611704  0.06327782     0.82300
O680        O  0.44171825  0.82520343  0.45258776    -0.79900
O681        O  0.04580945  0.89373458  0.48924848    -0.81400
O682        O  0.14379075  0.76254425  0.45602545    -0.81200
O683        O  0.04922002  0.69164724  0.42654530    -0.79800
Zn684      Zn  0.01425616  0.76419087  0.48758031     1.55700
O685        O  0.14236091  0.83673927  0.47501590    -0.81200
Cd686      Cd  0.08368130  0.75263582  0.42281594     1.59700
Cd687      Cd  0.00271012  0.82893123  0.41816003     1.59600
O688        O  0.08678847  0.77679801  0.35945319    -0.81200
O689        O  0.04829288  0.79821230  0.45355171    -1.91700
Cd690      Cd  0.07899676  0.83360919  0.49914348     1.59900
O691        O  0.01258501  0.79573847  0.35804177    -0.81100
O692        O  0.07525750  0.79916923  0.06013623    -0.79800
C693        C  0.43857668  0.81777340  0.49564123     0.82700
C694        C  0.00616601  0.68851804  0.43398463     0.82400
O695        O  0.05747017  0.73228353  0.02854116    -0.78700
C696        C  0.16085407  0.80284275  0.45538323     0.83200
O697        O  0.47331082  0.80742459  0.01947660    -0.78800
C698        C  0.05287485  0.79640821  0.34096585     0.83300
C699        C  0.04645093  0.91080216  0.44895133     0.83700
O700        O  0.02684485  0.89229556  0.41504706    -0.81300
C701        C  0.22379736  0.64833781  0.48273662     0.86200
C702        C  0.25539404  0.62113534  0.01380933    -0.54000
C703        C  0.23803889  0.60702695  0.05385831     0.09100
C704        C  0.18918172  0.62314980  0.06223813     0.20100
C705        C  0.17784107  0.61696949  0.48027765    -0.54800
C706        C  0.15864798  0.60443251  0.02367999     0.09200
C707        C  0.20483238  0.68736908  0.01205060    -0.54300
C708        C  0.19038676  0.67484186  0.05376978     0.09800
H709        H  0.28790577  0.60736023  0.50140082     0.14300
H710        H  0.17865419  0.61429268  0.09722486     0.00100
H711        H  0.15846576  0.61304143  0.44909782     0.14600
H712        H  0.20317651  0.72301839  0.00220608     0.14400
C713        C  0.14832013  0.98273702  0.22379296     0.86200
C714        C  0.12110319  0.51379732  0.25539025    -0.54000
C715        C  0.10698631  0.55384418  0.23803663     0.09100
C716        C  0.12311861  0.56223858  0.18918533     0.20100
C717        C  0.11696276  0.98027550  0.17783139    -0.54800
C718        C  0.10442099  0.52367827  0.15864240     0.09200
C719        C  0.18734556  0.51206161  0.20483545    -0.54300
C720        C  0.17481146  0.55378161  0.19039939     0.09800
H721        H  0.10732643  0.00138119  0.28789896     0.14300
H722        H  0.11425282  0.59722621  0.17866148     0.00100
H723        H  0.11304842  0.94909677  0.15845128     0.14600
H724        H  0.22299364  0.50221410  0.20315871     0.14400
C725        C  0.48273809  0.72378453  0.14833557     0.86200
C726        C  0.01381921  0.75537736  0.12113713    -0.54000
C727        C  0.05386718  0.73801389  0.10703681     0.09100
C728        C  0.06223921  0.68915923  0.12316863     0.20100
C729        C  0.48028102  0.67782752  0.11696787    -0.54800
C730        C  0.02368388  0.65863034  0.10444062     0.09200
C731        C  0.01203886  0.70481447  0.18737375    -0.54300
C732        C  0.05375989  0.69036908  0.17485834     0.09800
H733        H  0.50141564  0.78788865  0.10735442     0.14300
H734        H  0.09722777  0.67863031  0.11432406     0.00100
H735        H  0.44909984  0.65845805  0.11303110     0.14600
H736        H  0.00218341  0.70315778  0.22302028     0.14400
O737        O  0.27850060  0.69434552  0.26947065    -0.78800
C738        C  0.24562420  0.81325181  0.18398707     0.82300
O739        O  0.17656538  0.70259228  0.31012780    -0.79900
O740        O  0.10800836  0.73921778  0.20605222    -0.81400
O741        O  0.23920793  0.70605160  0.10803210    -0.81200
O742        O  0.31009605  0.67657209  0.20258311    -0.79800
Zn743      Zn  0.23754990  0.73757000  0.23756511     1.55700
O744        O  0.16500228  0.72498849  0.10945916    -0.81200
Cd745      Cd  0.24910209  0.67283692  0.16814333     1.59700
Cd746      Cd  0.17281423  0.66814895  0.24913916     1.59600
O747        O  0.22496282  0.60947042  0.16502744    -0.81200
O748        O  0.20351318  0.70354382  0.20354101    -1.91700
Cd749      Cd  0.16811320  0.74912886  0.17282884     1.59900
O750        O  0.20601467  0.60803782  0.23923198    -0.81100
O751        O  0.20256797  0.81011912  0.17656314    -0.79800
C752        C  0.18399696  0.74564672  0.31326194     0.82700
C753        C  0.31323692  0.68400172  0.24563751     0.82400
O754        O  0.26945204  0.77851053  0.19432958    -0.78700
C755        C  0.19891519  0.70538840  0.09096007     0.83200
O756        O  0.19433488  0.76947775  0.27852062    -0.78800
C757        C  0.20535265  0.59097273  0.19893564     0.83300
C758        C  0.09094188  0.69892098  0.20540726     0.83700
O759        O  0.10944154  0.66501941  0.22502700    -0.81300
C760        C  0.21253493  0.96253762  0.28924398     0.45200
H761        H  0.23318107  0.98318135  0.26859609    -0.03800
C762        C  0.16316806  0.91316815  0.33861960     0.45200
H763        H  0.14186783  0.89187081  0.35992116    -0.03800
C764        C  0.24140243  0.91840637  0.30487702    -0.17500
C765        C  0.19690339  0.99140658  0.33337479    -0.17300
C766        C  0.16840134  0.94690332  0.26038196    -0.17700
C767        C  0.21441555  0.89155957  0.33376474    -0.17700
C768        C  0.16802273  0.96441629  0.36022563    -0.17200
C769        C  0.14155472  0.91801919  0.28737385    -0.17500
C770        C  0.01906152  0.97378703  0.10345846     0.86200
C771        C  0.48799227  0.50538455  0.13066517    -0.54000
C772        C  0.44794291  0.98803008  0.14477076     0.09100
C773        C  0.43955801  0.93917797  0.12864045     0.20100
C774        C  0.02151646  0.92782753  0.13482315    -0.54800
C775        C  0.47811209  0.90863875  0.14735645     0.09200
C776        C  0.48975124  0.95482434  0.06442625    -0.54300
C777        C  0.44802907  0.94039072  0.07694947     0.09800
H778        H  0.00040301  0.53789303  0.14444516     0.14300
H779        H  0.40457028  0.92865078  0.13749399     0.00100
H780        H  0.05269421  0.90844902  0.13874939     0.14600
H781        H  0.49960558  0.45315490  0.02877944     0.14400
C782        C  0.27799147  0.89832720  0.26904110     0.86200
C783        C  0.24639350  0.87111914  0.23797537    -0.54000
C784        C  0.26374577  0.85700681  0.19792687     0.09100
C785        C  0.31260114  0.87313228  0.18953936     0.20100
C786        C  0.32395041  0.86696282  0.27150060    -0.54800
C787        C  0.34314055  0.85442324  0.22809820     0.09200
C788        C  0.29695166  0.93735575  0.23972082    -0.54300
C789        C  0.31139237  0.92482536  0.19800199     0.09800
H790        H  0.21388289  0.85734579  0.25038807     0.14300
H791        H  0.32312985  0.86427062  0.15455384     0.00100
H792        H  0.34333021  0.86304274  0.30267901     0.14600
H793        H  0.29861532  0.97300497  0.24956431     0.14400
C794        C  0.35347423  0.73273942  0.02799143     0.86200
C795        C  0.38069925  0.76379447  0.49639509    -0.54000
C796        C  0.39481699  0.80384071  0.01374800     0.09100
C797        C  0.37868219  0.81223987  0.06259504     0.20100
C798        C  0.38482726  0.73027641  0.07395715    -0.54800
C799        C  0.39737351  0.77367889  0.09314263     0.09200
C800        C  0.31445046  0.76207225  0.04694127    -0.54300
C801        C  0.32698953  0.80379131  0.06137326     0.09800
H802        H  0.39447801  0.75137652  0.46388868     0.14300
H803        H  0.38755190  0.84722777  0.07311512     0.00100
H804        H  0.38873883  0.69909751  0.09333921     0.14600
H805        H  0.27880064  0.75223184  0.54861643     0.14400
O806        O  0.23233605  0.52853224  0.05743469    -0.78800
C807        C  0.31781219  0.99567623  0.43850047     0.82300
O808        O  0.19170978  0.92657253  0.04918607    -0.79900
O809        O  0.29582013  0.85805688  0.01252496    -0.81400
O810        O  0.39378329  0.98925119  0.04576585    -0.81200
O811        O  0.29921007  0.56013984  0.07524044    -0.79800
Zn812      Zn  0.26424235  0.98760099  0.01419495     1.55700
O813        O  0.39235510  0.91505764  0.02677037    -0.81200
Cd814      Cd  0.33366736  0.99915137  0.07896395     1.59700
Cd815      Cd  0.25270299  0.92285265  0.08361312     1.59600
O816        O  0.33677408  0.97498537  0.14232326    -0.81200
O817        O  0.29828016  0.95357988  0.04822248    -1.91700
Cd818      Cd  0.32899457  0.91818714  0.00263546     1.59900
O819        O  0.26257280  0.95603560  0.14373782    -0.81100
O820        O  0.32526040  0.95262526  0.44164255    -0.79800
C821        C  0.18856687  0.93400864  0.00613371     0.82700
C822        C  0.25615698  0.56327104  0.06779838     0.82400
O823        O  0.30745662  0.51950824  0.47323560    -0.78700
C824        C  0.41084762  0.94895273  0.04640488     0.83200
O825        O  0.22329922  0.94436467  0.48229935    -0.78800
C826        C  0.30286371  0.95537303  0.16081264     0.83300
C827        C  0.29646151  0.84098999  0.05282236     0.83700
O828        O  0.27685008  0.85949356  0.08672511    -0.81300
C829        C  0.08862655  0.58861562  0.58861881     0.45200
H830        H  0.10992695  0.60990839  0.60992036    -0.03800
C831        C  0.03925868  0.53924627  0.53924668     0.45200
H832        H  0.01861359  0.51860200  0.51860051    -0.03800
C833        C  0.08377389  0.53736854  0.61022647    -0.17500
C834        C  0.03737897  0.61022390  0.58376861    -0.17300
C835        C  0.11023680  0.58376754  0.53737133    -0.17700
C836        C  0.05489267  0.51037864  0.58337865    -0.17700
C837        C  0.01039076  0.58337674  0.55488192    -0.17200
C838        C  0.08339040  0.55488147  0.51038131    -0.17500
C839        C  0.41316843  0.83861995  0.66316186     0.45200
H840        H  0.39186763  0.85991727  0.64185904    -0.03800
C841        C  0.46253689  0.78925040  0.71253751     0.45200
H842        H  0.48318408  0.76860598  0.73318564    -0.03800
C843        C  0.41802515  0.78737200  0.64155565    -0.17500
C844        C  0.46441525  0.86022893  0.66801738    -0.17300
C845        C  0.39155570  0.83376772  0.71440807    -0.17700
C846        C  0.44690658  0.76038219  0.66840646    -0.17700
C847        C  0.49140286  0.83338199  0.69690496    -0.17200
C848        C  0.41840309  0.80488321  0.74139980    -0.17500
C849        C  0.47379921  0.60345290  0.51904643     0.86200
C850        C  0.00539706  0.63065385  0.98797432    -0.54000
C851        C  0.48804373  0.64476298  0.94792483     0.09100
C852        C  0.43918547  0.62864170  0.93954409     0.20100
C853        C  0.42784379  0.63482237  0.52150479    -0.54800
C854        C  0.40865104  0.64735884  0.97810215     0.09200
C855        C  0.45483355  0.56442214  0.98973287    -0.54300
C856        C  0.44038828  0.57694931  0.94801343     0.09800
H857        H  0.03790886  0.64442746  0.50038376     0.14300
H858        H  0.42865696  0.63749948  0.90455792     0.00100
H859        H  0.40846770  0.63874970  0.55268426     0.14600
H860        H  0.95317363  0.52877351  0.99957964     0.14400
C861        C  0.39832429  0.76904877  0.77798968     0.86200
C862        C  0.37111006  0.73798544  0.74639341    -0.54000
C863        C  0.35699614  0.69793850  0.76374907     0.09100
C864        C  0.37312819  0.68954778  0.81260131     0.20100
C865        C  0.36696597  0.77151068  0.82395082    -0.54800
C866        C  0.35442647  0.72810838  0.84314183     0.09200
C867        C  0.43735170  0.73972636  0.79694881    -0.54300
C868        C  0.42482023  0.69800682  0.81138777     0.09800
H869        H  0.35733286  0.75039930  0.71388391     0.14300
H870        H  0.36426576  0.65456005  0.82312613     0.00100
H871        H  0.36304816  0.80269044  0.84332872     0.14600
H872        H  0.47299971  0.74957406  0.79862257     0.14400
C873        C  0.23273390  0.52800587  0.85344478     0.86200
C874        C  0.26381749  0.99641310  0.88064098    -0.54000
C875        C  0.30386544  0.51377690  0.89474006     0.09100
C876        C  0.31223518  0.56263161  0.87860848     0.20100
C877        C  0.23027773  0.57396289  0.88481378    -0.54800
C878        C  0.27368099  0.59316002  0.89733960     0.09200
C879        C  0.26203233  0.54697664  0.81440556    -0.54300
C880        C  0.30375333  0.56142294  0.82691938     0.09800
H881        H  0.25141510  0.96390212  0.89442485     0.14300
H882        H  0.34722388  0.57315984  0.88745088     0.00100
H883        H  0.19909643  0.59333236  0.88875241     0.14600
H884        H  0.25217634  0.04863092  0.77875917     0.14400
O885        O  0.01944380  0.97327432  0.80745701    -0.78800
C886        C  0.43399310  0.50614359  0.68852459     0.82300
O887        O  0.06008683  0.57520347  0.79920508    -0.79900
O888        O  0.45602315  0.64374823  0.76255725    -0.81400
O889        O  0.35800175  0.51257390  0.79572478    -0.81200
O890        O  0.45256131  0.94166424  0.82522238    -0.79800
Zn891      Zn  0.48753787  0.51421479  0.76422373     1.55700
O892        O  0.35943603  0.58677343  0.77675307    -0.79600
Cd893      Cd  0.41810135  0.50265581  0.82895955     1.59700
Cd894      Cd  0.49909502  0.57894284  0.83364540     1.59600
O895        O  0.41499146  0.52679949  0.89233037    -0.81200
O896        O  0.45350187  0.54824203  0.79824896    -1.91700
Cd897      Cd  0.42281183  0.58364211  0.75264766     1.59900
O898        O  0.48919932  0.54572357  0.89375166    -0.81100
O899        O  0.42656683  0.54919912  0.69165912    -0.79800
C900        C  0.06322659  0.56777790  0.75615003     0.82700
C901        C  0.49561804  0.93853219  0.81779851     0.82400
O902        O  0.44432276  0.98230979  0.72326670    -0.78700
C903        C  0.34093503  0.55287118  0.79636999     0.83200
O904        O  0.02848976  0.55743592  0.73231695    -0.78800
C905        C  0.44890786  0.54639754  0.91082510     0.83300
C906        C  0.45536175  0.66081479  0.80285298     0.83700
O907        O  0.47496649  0.64231372  0.83676279    -0.81300
C908        C  0.33862681  0.66317131  0.91316487     0.45200
H909        H  0.35992778  0.64187756  0.89186483    -0.03800
C910        C  0.28926006  0.71254218  0.96253706     0.45200
H911        H  0.26861487  0.73318699  0.98318397    -0.03800
C912        C  0.28737826  0.64156484  0.91801455    -0.17500
C913        C  0.36023765  0.66801957  0.96441190    -0.17300
C914        C  0.33377605  0.71441852  0.89155696    -0.17700
C915        C  0.26039082  0.66841269  0.94690188    -0.17700
C916        C  0.33339217  0.69690621  0.99140207    -0.17200
C917        C  0.30489518  0.74140946  0.91840504    -0.17500
C918        C  0.10346917  0.51904794  0.97379007     0.86200
C919        C  0.13069033  0.98798798  0.50538514    -0.54000
C920        C  0.14480594  0.94794177  0.98802979     0.09100
C921        C  0.12867175  0.93954789  0.93918164     0.20100
C922        C  0.13482392  0.52151097  0.92782571    -0.54800
C923        C  0.14736767  0.97810888  0.90863754     0.09200
C924        C  0.06444330  0.98971975  0.95483741    -0.54300
C925        C  0.07697967  0.94800059  0.94040197     0.09800
H926        H  0.14446983  0.50040307  0.53789246     0.14300
H927        H  0.13753852  0.90455947  0.92866088     0.00100
H928        H  0.13873976  0.55269113  0.90844674     0.14600
H929        H  0.02879383  0.99956162  0.45316640     0.14400
C930        C  0.26906464  0.77800225  0.89832547     0.86200
C931        C  0.23799383  0.74640474  0.87112157    -0.54000
C932        C  0.19794403  0.76375957  0.85701674     0.09100
C933        C  0.18956043  0.81261268  0.87314582     0.20100
C934        C  0.27151832  0.82396044  0.86695885    -0.54800
C935        C  0.22811352  0.84315008  0.85442672     0.09200
C936        C  0.23975670  0.79696748  0.93735828    -0.54300
C937        C  0.19803406  0.81140234  0.92483653     0.09800
H938        H  0.25040448  0.71389597  0.85734118     0.14300
H939        H  0.15457239  0.82314015  0.86429393     0.00100
H940        H  0.30269594  0.84333842  0.86303092     0.14600
H941        H  0.24961268  0.79863641  0.97300476     0.14400
C942        C  0.02799099  0.85346088  0.73274127     0.86200
C943        C  0.49639177  0.88066630  0.76380858    -0.54000
C944        C  0.01374347  0.89477766  0.80385757     0.09100
C945        C  0.06260097  0.87865341  0.81224330     0.20100
C946        C  0.07394802  0.88482671  0.73028218    -0.54800
C947        C  0.09313894  0.89736477  0.77368460     0.09200
C948        C  0.04695426  0.81443166  0.76205923    -0.54300
C949        C  0.06139616  0.82696036  0.80377817     0.09800
H950        H  0.46388034  0.89443896  0.75139654     0.14300
H951        H  0.07313067  0.88751353  0.84722875     0.00100
H952        H  0.09332705  0.88874782  0.69910365     0.14600
H953        H  0.54861930  0.77878282  0.75221351     0.14400
O954        O  0.48234614  0.72325888  0.94434471    -0.78800
C955        C  0.06781608  0.75611706  0.56327780     0.82300
O956        O  0.44171826  0.82520357  0.95258775    -0.79900
O957        O  0.04580942  0.89373463  0.98924850    -0.81400
O958        O  0.14379065  0.76254427  0.95602546    -0.81200
O959        O  0.04922006  0.69164711  0.92654539    -0.79800
Zn960      Zn  0.01425616  0.76419068  0.98758042     1.55700
O961        O  0.14236090  0.83673925  0.97501601    -0.81200
Cd962      Cd  0.08368126  0.75263572  0.92281587     1.59700
Cd963      Cd  0.00271006  0.82893132  0.91816001     1.59600
O964        O  0.08678845  0.77679806  0.85945318    -0.81200
O965        O  0.04829277  0.79821217  0.95355166    -1.91700
Cd966      Cd  0.07899666  0.83360911  0.99914338     1.59900
O967        O  0.01258500  0.79573860  0.85804182    -0.81100
O968        O  0.07525748  0.79916924  0.56013633    -0.79800
C969        C  0.43857669  0.81777339  0.99564124     0.82700
C970        C  0.00616600  0.68851800  0.93398458     0.82400
O971        O  0.05747009  0.73228364  0.52854106    -0.78700
C972        C  0.16085403  0.80284275  0.95538331     0.83200
O973        O  0.47331082  0.80742472  0.51947667    -0.78800
C974        C  0.05287486  0.79640831  0.84096586     0.83300
C975        C  0.04645089  0.91080221  0.94895135     0.83700
O976        O  0.02684488  0.89229555  0.91504708    -0.81300
C977        C  0.22379733  0.64833775  0.98273655     0.86200
C978        C  0.25539408  0.62113531  0.51380932    -0.54000
C979        C  0.23803899  0.60702688  0.55385828     0.09100
C980        C  0.18918183  0.62314966  0.56223824     0.20100
C981        C  0.17784101  0.61696944  0.98027757    -0.54800
C982        C  0.15864808  0.60443245  0.52368004     0.09200
C983        C  0.20483241  0.68736907  0.51205080    -0.54300
C984        C  0.19038688  0.67484173  0.55376993     0.09800
H985        H  0.28790570  0.60736024  0.00140089     0.14300
H986        H  0.17865436  0.61429244  0.59722483     0.00100
H987        H  0.15846572  0.61304131  0.94909783     0.14600
H988        H  0.20317648  0.72301846  0.50220640     0.14400
C989        C  0.14832016  0.98273697  0.72379303     0.86200
C990        C  0.12110313  0.51379717  0.75539027    -0.54000
C991        C  0.10698625  0.55384406  0.73803669     0.09100
C992        C  0.12311855  0.56223856  0.68918544     0.20100
C993        C  0.11696287  0.98027556  0.67783147    -0.54800
C994        C  0.10442097  0.52367825  0.65864248     0.09200
C995        C  0.18734556  0.51206172  0.70483554    -0.54300
C996        C  0.17481139  0.55378168  0.69039947     0.09800
H997        H  0.10732647  0.00138115  0.78789903     0.14300
H998        H  0.11425262  0.59722621  0.67866165     0.00100
H999        H  0.11304842  0.94909659  0.65845125     0.14600
H1000       H  0.22299369  0.50221431  0.70315877     0.14400
C1001       C  0.48273810  0.72378452  0.64833552     0.86200
C1002       C  0.01381913  0.75537735  0.62113706    -0.54000
C1003       C  0.05386709  0.73801380  0.60703673     0.09100
C1004       C  0.06223915  0.68915918  0.62316860     0.20100
C1005       C  0.48028100  0.67782746  0.61696785    -0.54800
C1006       C  0.02368384  0.65863024  0.60444070     0.09200
C1007       C  0.01203888  0.70481446  0.68737366    -0.54300
C1008       C  0.05375989  0.69036909  0.67485829     0.09800
H1009       H  0.50141574  0.78788863  0.60735441     0.14300
H1010       H  0.09722776  0.67863027  0.61432407     0.00100
H1011       H  0.44909982  0.65845811  0.61303096     0.14600
H1012       H  0.00218342  0.70315773  0.72302030     0.14400
O1013       O  0.27850059  0.69434556  0.76947059    -0.78800
C1014       C  0.24562427  0.81325172  0.68398706     0.82300
O1015       O  0.17656535  0.70259223  0.81012775    -0.79900
O1016       O  0.10800840  0.73921774  0.70605220    -0.81400
O1017       O  0.23920789  0.70605159  0.60803225    -0.81200
O1018       O  0.31009607  0.67657216  0.70258306    -0.79800
Zn1019     Zn  0.23754980  0.73756987  0.73756503     1.55700
O1020       O  0.16500222  0.72498839  0.60945915    -0.81200
Cd1021     Cd  0.24910209  0.67283696  0.66814331     1.59700
Cd1022     Cd  0.17281436  0.66814885  0.74913910     1.59600
O1023       O  0.22496283  0.60947041  0.66502731    -0.81200
O1024       O  0.20351309  0.70354379  0.70354088    -1.91700
Cd1025     Cd  0.16811315  0.74912892  0.67282875     1.59900
O1026       O  0.20601492  0.60803788  0.73923188    -0.81100
O1027       O  0.20256805  0.81011907  0.67656303    -0.79800
C1028       C  0.18399690  0.74564670  0.81326186     0.82700
C1029       C  0.31323690  0.68400171  0.74563750     0.82400
O1030       O  0.26945205  0.77851045  0.69432973    -0.78700
C1031       C  0.19891515  0.70538822  0.59096023     0.83200
O1032       O  0.19433480  0.76947766  0.77852052    -0.78800
C1033       C  0.20535262  0.59097283  0.69893554     0.83300
C1034       C  0.09094194  0.69892095  0.70540719     0.83700
O1035       O  0.10944161  0.66501934  0.72502691    -0.81300
C1036       C  0.21253499  0.96253756  0.78924402     0.45200
H1037       H  0.23318113  0.98318129  0.76859619    -0.03800
C1038       C  0.16316807  0.91316810  0.83861967     0.45200
H1039       H  0.14186796  0.89187088  0.85992115    -0.03800
C1040       C  0.24140246  0.91840630  0.80487706    -0.17500
C1041       C  0.19690342  0.99140655  0.83337480    -0.17300
C1042       C  0.16840142  0.94690322  0.76038197    -0.17700
C1043       C  0.21441560  0.89155954  0.83376481    -0.17700
C1044       C  0.16802276  0.96441631  0.86022563    -0.17200
C1045       C  0.14155480  0.91801910  0.78737384    -0.17500
C1046       C  0.01906148  0.97378713  0.60345848     0.86200
C1047       C  0.48799231  0.50538450  0.63066527    -0.54000
C1048       C  0.44794282  0.98803012  0.64477072     0.09100
C1049       C  0.43955798  0.93917798  0.62864045     0.20100
C1050       C  0.02151639  0.92782764  0.63482315    -0.54800
C1051       C  0.47811208  0.90863881  0.64735648     0.09200
C1052       C  0.48975125  0.95482441  0.56442627    -0.54300
C1053       C  0.44802909  0.94039067  0.57694949     0.09800
H1054       H  0.00040304  0.53789323  0.64444509     0.14300
H1055       H  0.40457030  0.92865079  0.63749404     0.00100
H1056       H  0.05269429  0.90844911  0.63874946     0.14600
H1057       H  0.49960552  0.45315488  0.52877957     0.14400
C1058       C  0.27799145  0.89832714  0.76904108     0.86200
C1059       C  0.24639347  0.87111900  0.73797537    -0.54000
C1060       C  0.26374581  0.85700674  0.69792684     0.09100
C1061       C  0.31260115  0.87313232  0.68953933     0.20100
C1062       C  0.32395044  0.86696286  0.77150059    -0.54800
C1063       C  0.34314061  0.85442333  0.72809820     0.09200
C1064       C  0.29695156  0.93735572  0.73972078    -0.54300
C1065       C  0.31139231  0.92482539  0.69800195     0.09800
H1066       H  0.21388298  0.85734567  0.75038803     0.14300
H1067       H  0.32312989  0.86427079  0.65455377     0.00100
H1068       H  0.34333021  0.86304279  0.80267903     0.14600
H1069       H  0.29861535  0.97300493  0.74956439     0.14400
C1070       C  0.35347424  0.73273943  0.52799144     0.86200
C1071       C  0.38069924  0.76379449  0.99639519    -0.54000
C1072       C  0.39481699  0.80384070  0.51374798     0.09100
C1073       C  0.37868223  0.81223985  0.56259500     0.20100
C1074       C  0.38482726  0.73027649  0.57395709    -0.54800
C1075       C  0.39737354  0.77367890  0.59314263     0.09200
C1076       C  0.31445054  0.76207228  0.54694133    -0.54300
C1077       C  0.32698957  0.80379132  0.56137333     0.09800
H1078       H  0.39447808  0.75137652  0.96388865     0.14300
H1079       H  0.38755203  0.84722784  0.57311518     0.00100
H1080       H  0.38873878  0.69909732  0.59333930     0.14600
H1081       H  0.27880071  0.75223185  0.04861629     0.14400
O1082       O  0.23233618  0.52853219  0.55743464    -0.78800
C1083       C  0.31781215  0.99567619  0.93850049     0.82300
O1084       O  0.19170976  0.92657273  0.54918612    -0.79900
O1085       O  0.29582023  0.85805676  0.51252493    -0.81400
O1086       O  0.39378337  0.98925111  0.54576577    -0.81200
O1087       O  0.29921013  0.56013985  0.57524063    -0.79800
Zn1088     Zn  0.26424231  0.98760107  0.51419501     1.55700
O1089       O  0.39235523  0.91505756  0.52677026    -0.81200
Cd1090     Cd  0.33366735  0.99915146  0.57896387     1.59700
Cd1091     Cd  0.25270295  0.92285277  0.58361308     1.59600
O1092       O  0.33677413  0.97498544  0.64232320    -0.81200
O1093       O  0.29828015  0.95357987  0.54822243    -1.91700
Cd1094     Cd  0.32899458  0.91818704  0.50263540     1.59900
O1095       O  0.26257285  0.95603576  0.64373773    -0.81100
O1096       O  0.32526039  0.95262524  0.94164257    -0.79800
C1097       C  0.18856686  0.93400864  0.50613372     0.82700
C1098       C  0.25615706  0.56327100  0.56779840     0.82400
O1099       O  0.30745667  0.51950827  0.97323552    -0.78700
C1100       C  0.41084769  0.94895267  0.54640485     0.83200
O1101       O  0.22329924  0.94436473  0.98229936    -0.78800
C1102       C  0.30286373  0.95537310  0.66081256     0.83300
C1103       C  0.29646156  0.84098998  0.55282236     0.83700
O1104       O  0.27685008  0.85949364  0.58672507    -0.81300
C1105       C  0.58862653  0.08861559  0.08861871     0.45200
H1106       H  0.60992707  0.10990847  0.10992031    -0.03800
C1107       C  0.53925862  0.03924626  0.03924669     0.45200
H1108       H  0.51861353  0.01860208  0.01860067    -0.03800
C1109       C  0.58377395  0.03736851  0.11022639    -0.17500
C1110       C  0.53737899  0.11022396  0.08376858    -0.17300
C1111       C  0.61023678  0.08376757  0.03737127    -0.17700
C1112       C  0.55489268  0.01037862  0.08337862    -0.17700
C1113       C  0.51039074  0.08337677  0.05488195    -0.17200
C1114       C  0.58339035  0.05488149  0.01038131    -0.17500
C1115       C  0.91316838  0.33861992  0.16316180     0.45200
H1116       H  0.89186758  0.35991722  0.14185895    -0.03800
C1117       C  0.96253686  0.28925042  0.21253750     0.45200
H1118       H  0.98318404  0.26860607  0.23318562    -0.03800
C1119       C  0.91802513  0.28737199  0.14155563    -0.17500
C1120       C  0.96441519  0.36022893  0.16801733    -0.17300
C1121       C  0.89155564  0.33376765  0.21440803    -0.17700
C1122       C  0.94690655  0.26038220  0.16840646    -0.17700
C1123       C  0.99140281  0.33338200  0.19690493    -0.17200
C1124       C  0.91840309  0.30488319  0.24139979    -0.17500
C1125       C  0.97379922  0.10345292  0.01904640     0.86200
C1126       C  0.50539715  0.13065383  0.48797435    -0.54000
C1127       C  0.98804371  0.14476300  0.44792486     0.09100
C1128       C  0.93918546  0.12864170  0.43954408     0.20100
C1129       C  0.92784371  0.13482233  0.02150484    -0.54800
C1130       C  0.90865104  0.14735885  0.47810215     0.09200
C1131       C  0.95483347  0.06442208  0.48973287    -0.54300
C1132       C  0.94038825  0.07694931  0.44801341     0.09800
H1133       H  0.53790884  0.14442743  0.00038370     0.14300
H1134       H  0.92865700  0.13749950  0.40455788     0.00100
H1135       H  0.90846775  0.13874954  0.05268421     0.14600
H1136       H  0.45317371  0.02877349  0.49957960     0.14400
C1137       C  0.89832438  0.26904876  0.27798973     0.86200
C1138       C  0.87111004  0.23798546  0.24639353    -0.54000
C1139       C  0.85699612  0.19793851  0.26374914     0.09100
C1140       C  0.87312825  0.18954776  0.31260134     0.20100
C1141       C  0.86696609  0.27151072  0.32395088    -0.54800
C1142       C  0.85442654  0.22810840  0.34314186     0.09200
C1143       C  0.93735187  0.23972633  0.29694883    -0.54300
C1144       C  0.92482033  0.19800677  0.31138780     0.09800
H1145       H  0.85733276  0.25039935  0.21388403     0.14300
H1146       H  0.86426581  0.15456004  0.32312613     0.00100
H1147       H  0.86304839  0.30269040  0.34332878     0.14600
H1148       H  0.97299976  0.24957392  0.29862256     0.14400
C1149       C  0.73273386  0.02800595  0.35344476     0.86200
C1150       C  0.76381750  0.49641311  0.38064101    -0.54000
C1151       C  0.80386536  0.01377698  0.39474009     0.09100
C1152       C  0.81223511  0.06263168  0.37860845     0.20100
C1153       C  0.73027768  0.07396303  0.38481371    -0.54800
C1154       C  0.77368097  0.09316013  0.39733956     0.09200
C1155       C  0.76203230  0.04697664  0.31440547    -0.54300
C1156       C  0.80375333  0.06142296  0.32691934     0.09800
H1157       H  0.75141515  0.46390220  0.39442486     0.14300
H1158       H  0.84722386  0.07315995  0.38745089     0.00100
H1159       H  0.69909640  0.09333248  0.38875228     0.14600
H1160       H  0.75217642  0.54863094  0.27875927     0.14400
O1161       O  0.51944364  0.47327436  0.30745708    -0.78800
C1162       C  0.93399312  0.00614346  0.18852462     0.82300
O1163       O  0.56008681  0.07520340  0.29920507    -0.79900
O1164       O  0.95602334  0.14374815  0.26255734    -0.81400
O1165       O  0.85800186  0.01257385  0.29572493    -0.81200
O1166       O  0.95256140  0.44166425  0.32522248    -0.79800
Zn1167     Zn  0.98753783  0.01421485  0.26422365     1.55700
O1168       O  0.85943611  0.08677333  0.27675299    -0.79600
Cd1169     Cd  0.91810151  0.00265573  0.32895962     1.59700
Cd1170     Cd  0.99909501  0.07894279  0.33364523     1.59600
O1171       O  0.91499156  0.02679936  0.39233042    -0.81200
O1172       O  0.95350192  0.04824195  0.29824896    -1.91700
Cd1173     Cd  0.92281198  0.08364203  0.25264773     1.59900
O1174       O  0.98919934  0.04572380  0.39375154    -0.81100
O1175       O  0.92656683  0.04919897  0.19165922    -0.79800
C1176       C  0.56322656  0.06777791  0.25615001     0.82700
C1177       C  0.99561812  0.43853219  0.31779853     0.82400
O1178       O  0.94432265  0.48230972  0.22326677    -0.78700
C1179       C  0.84093509  0.05287112  0.29636999     0.83200
O1180       O  0.52848974  0.05743594  0.23231693    -0.78800
C1181       C  0.94890791  0.04639760  0.41082505     0.83300
C1182       C  0.95536191  0.16081474  0.30285306     0.83700
O1183       O  0.97496667  0.14231368  0.33676285    -0.81300
C1184       C  0.83862684  0.16317139  0.41316489     0.45200
H1185       H  0.85992782  0.14187767  0.39186485    -0.03800
C1186       C  0.78926005  0.21254220  0.46253713     0.45200
H1187       H  0.76861475  0.23318701  0.48318409    -0.03800
C1188       C  0.78737828  0.14156491  0.41801459    -0.17500
C1189       C  0.86023766  0.16801964  0.46441192    -0.17300
C1190       C  0.83377609  0.21441858  0.39155701    -0.17700
C1191       C  0.76039082  0.16841272  0.44690195    -0.17700
C1192       C  0.83339216  0.19690622  0.49140212    -0.17200
C1193       C  0.80489519  0.24140949  0.41840509    -0.17500
C1194       C  0.60346912  0.01904800  0.47378999     0.86200
C1195       C  0.63069030  0.48798787  0.00538517    -0.54000
C1196       C  0.64480591  0.44794170  0.48802980     0.09100
C1197       C  0.62867180  0.43954784  0.43918166     0.20100
C1198       C  0.63482391  0.02151098  0.42782568    -0.54800
C1199       C  0.64736774  0.47810884  0.40863756     0.09200
C1200       C  0.56444332  0.48971974  0.45483730    -0.54300
C1201       C  0.57697974  0.44800055  0.44040199     0.09800
H1202       H  0.64446973  0.00040304  0.03789251     0.14300
H1203       H  0.63753855  0.40455943  0.42866085     0.00100
H1204       H  0.63873969  0.05269124  0.40844661     0.14600
H1205       H  0.52879387  0.49956167  0.95316652     0.14400
C1206       C  0.76906469  0.27800227  0.39832553     0.86200
C1207       C  0.73799391  0.24640472  0.37112166    -0.54000
C1208       C  0.69794416  0.26375954  0.35701678     0.09100
C1209       C  0.68956044  0.31261268  0.37314575     0.20100
C1210       C  0.77151841  0.32396042  0.36695881    -0.54800
C1211       C  0.72811358  0.34315004  0.35442666     0.09200
C1212       C  0.73975672  0.29696756  0.43735830    -0.54300
C1213       C  0.69803409  0.31140237  0.42483649     0.09800
H1214       H  0.75040456  0.21389595  0.35734128     0.14300
H1215       H  0.65457264  0.32314007  0.36429384     0.00100
H1216       H  0.80269599  0.34333827  0.36303093     0.14600
H1217       H  0.74961259  0.29863638  0.47300483     0.14400
C1218       C  0.52799102  0.35346085  0.23274124     0.86200
C1219       C  0.99639177  0.38066625  0.26380856    -0.54000
C1220       C  0.51374347  0.39477767  0.30385752     0.09100
C1221       C  0.56260098  0.37865336  0.31224332     0.20100
C1222       C  0.57394810  0.38482664  0.23028218    -0.54800
C1223       C  0.59313896  0.39736471  0.27368461     0.09200
C1224       C  0.54695419  0.31443162  0.26205922    -0.54300
C1225       C  0.56139613  0.32696029  0.30377814     0.09800
H1226       H  0.96388029  0.39443896  0.25139647     0.14300
H1227       H  0.57313062  0.38751343  0.34722871     0.00100
H1228       H  0.59332707  0.38874788  0.19910371     0.14600
H1229       H  0.04861931  0.27878276  0.25221350     0.14400
O1230       O  0.98234628  0.22325895  0.44434472    -0.78800
C1231       C  0.56781621  0.25611702  0.06327781     0.82300
O1232       O  0.94171825  0.32520348  0.45258779    -0.79900
O1233       O  0.54580940  0.39373454  0.48924848    -0.81400
O1234       O  0.64379070  0.26254429  0.45602552    -0.81200
O1235       O  0.54921995  0.19164715  0.42654525    -0.79800
Zn1236     Zn  0.51425626  0.26419089  0.48758033     1.55700
O1237       O  0.64236088  0.33673933  0.47501584    -0.81200
Cd1238     Cd  0.58368134  0.25263568  0.42281592     1.59700
Cd1239     Cd  0.50271019  0.32893131  0.41816002     1.59600
O1240       O  0.58678848  0.27679808  0.35945323    -0.81200
O1241       O  0.54829292  0.29821225  0.45355166    -1.91700
Cd1242     Cd  0.57899680  0.33360910  0.49914346     1.59900
O1243       O  0.51258500  0.29573852  0.35804178    -0.81100
O1244       O  0.57525765  0.29916918  0.06013625    -0.79800
C1245       C  0.93857668  0.31777330  0.49564124     0.82700
C1246       C  0.50616594  0.18851805  0.43398463     0.82400
O1247       O  0.55747026  0.23228353  0.02854111    -0.78700
C1248       C  0.66085403  0.30284279  0.45538321     0.83200
O1249       O  0.97331089  0.30742470  0.01947655    -0.78800
C1250       C  0.55287485  0.29640821  0.34096584     0.83300
C1251       C  0.54645096  0.41080217  0.44895134     0.83700
O1252       O  0.52684496  0.39229560  0.41504702    -0.81300
C1253       C  0.72379736  0.14833778  0.48273663     0.86200
C1254       C  0.75539413  0.12113539  0.01380935    -0.54000
C1255       C  0.73803896  0.10702690  0.05385828     0.09100
C1256       C  0.68918182  0.12314975  0.06223810     0.20100
C1257       C  0.67784111  0.11696938  0.48027765    -0.54800
C1258       C  0.65864809  0.10443244  0.02367999     0.09200
C1259       C  0.70483233  0.18736909  0.01205061    -0.54300
C1260       C  0.69038679  0.17484181  0.05376980     0.09800
H1261       H  0.78790578  0.10736028  0.50140088     0.14300
H1262       H  0.67865430  0.11429258  0.09722490     0.00100
H1263       H  0.65846589  0.11304120  0.44909783     0.14600
H1264       H  0.70317641  0.22301838  0.00220615     0.14400
C1265       C  0.64832017  0.48273705  0.22379299     0.86200
C1266       C  0.62110306  0.01379723  0.25539025    -0.54000
C1267       C  0.60698622  0.05384412  0.23803664     0.09100
C1268       C  0.62311852  0.06223861  0.18918534     0.20100
C1269       C  0.61696283  0.48027554  0.17783140    -0.54800
C1270       C  0.60442101  0.02367821  0.15864240     0.09200
C1271       C  0.68734548  0.01206165  0.20483549    -0.54300
C1272       C  0.67481137  0.05378163  0.19039946     0.09800
H1273       H  0.60732658  0.50138132  0.28789901     0.14300
H1274       H  0.61425272  0.09722607  0.17866152     0.00100
H1275       H  0.61304842  0.44909679  0.15845133     0.14600
H1276       H  0.72299359  0.00221414  0.20315866     0.14400
C1277       C  0.98273807  0.22378455  0.14833555     0.86200
C1278       C  0.51381922  0.25537742  0.12113710    -0.54000
C1279       C  0.55386717  0.23801386  0.10703677     0.09100
C1280       C  0.56223916  0.18915924  0.12316862     0.20100
C1281       C  0.98028100  0.17782756  0.11696784    -0.54800
C1282       C  0.52368385  0.15863034  0.10444062     0.09200
C1283       C  0.51203894  0.20481455  0.18737376    -0.54300
C1284       C  0.55375995  0.19036910  0.17485833     0.09800
H1285       H  0.00141568  0.28788860  0.10735447     0.14300
H1286       H  0.59722779  0.17863023  0.11432394     0.00100
H1287       H  0.94909981  0.15845811  0.11303107     0.14600
H1288       H  0.50218352  0.20315785  0.22302031     0.14400
O1289       O  0.77850054  0.19434545  0.26947064    -0.78800
C1290       C  0.74562418  0.31325173  0.18398705     0.82300
O1291       O  0.67656553  0.20259212  0.31012787    -0.79900
O1292       O  0.60800852  0.23921766  0.20605227    -0.81400
O1293       O  0.73920792  0.20605168  0.10803210    -0.81200
O1294       O  0.81009606  0.17657211  0.20258313    -0.79800
Zn1295     Zn  0.73754990  0.23756987  0.23756510     1.55700
O1296       O  0.66500222  0.22498836  0.10945919    -0.81200
Cd1297     Cd  0.74910213  0.17283695  0.16814330     1.59700
Cd1298     Cd  0.67281432  0.16814881  0.24913918     1.59600
O1299       O  0.72496276  0.10947041  0.16502740    -0.81200
O1300       O  0.70351318  0.20354378  0.20354100    -1.91700
Cd1301     Cd  0.66811325  0.24912885  0.17282883     1.59900
O1302       O  0.70601481  0.10803781  0.23923197    -0.81100
O1303       O  0.70256793  0.31011907  0.17656314    -0.79800
C1304       C  0.68399701  0.24564661  0.31326193     0.82700
C1305       C  0.81323689  0.18400165  0.24563754     0.82400
O1306       O  0.76945200  0.27851047  0.19432960    -0.78700
C1307       C  0.69891515  0.20538837  0.09096009     0.83200
O1308       O  0.69433477  0.26947758  0.27852056    -0.78800
C1309       C  0.70535258  0.09097277  0.19893562     0.83300
C1310       C  0.59094201  0.19892089  0.20540724     0.83700
O1311       O  0.60944163  0.16501925  0.22502697    -0.81300
C1312       C  0.71253499  0.46253758  0.28924398     0.45200
H1313       H  0.73318111  0.48318126  0.26859618    -0.03800
C1314       C  0.66316802  0.41316810  0.33861965     0.45200
H1315       H  0.64186793  0.39187090  0.35992108    -0.03800
C1316       C  0.74140242  0.41840628  0.30487701    -0.17500
C1317       C  0.69690343  0.49140653  0.33337479    -0.17300
C1318       C  0.66840136  0.44690331  0.26038197    -0.17700
C1319       C  0.71441556  0.39155950  0.33376472    -0.17700
C1320       C  0.66802276  0.46441629  0.36022564    -0.17200
C1321       C  0.64155474  0.41801919  0.28737385    -0.17500
C1322       C  0.51906156  0.47378710  0.10345848     0.86200
C1323       C  0.98799222  0.00538442  0.13066512    -0.54000
C1324       C  0.94794284  0.48803011  0.14477077     0.09100
C1325       C  0.93955791  0.43917800  0.12864045     0.20100
C1326       C  0.52151644  0.42782762  0.13482317    -0.54800
C1327       C  0.97811202  0.40863880  0.14735644     0.09200
C1328       C  0.98975122  0.45482441  0.06442625    -0.54300
C1329       C  0.94802905  0.44039078  0.07694947     0.09800
H1330       H  0.50040311  0.03789304  0.14444513     0.14300
H1331       H  0.90457027  0.42865083  0.13749393     0.00100
H1332       H  0.55269432  0.40844904  0.13874945     0.14600
H1333       H  0.99960553  0.95315480  0.02877943     0.14400
C1334       C  0.77799144  0.39832710  0.26904108     0.86200
C1335       C  0.74639340  0.37111900  0.23797538    -0.54000
C1336       C  0.76374574  0.35700675  0.19792683     0.09100
C1337       C  0.81260109  0.37313224  0.18953938     0.20100
C1338       C  0.82395041  0.36696275  0.27150065    -0.54800
C1339       C  0.84314055  0.35442323  0.22809819     0.09200
C1340       C  0.79695164  0.43735565  0.23972084    -0.54300
C1341       C  0.81139233  0.42482531  0.19800198     0.09800
H1342       H  0.71388298  0.35734570  0.25038800     0.14300
H1343       H  0.82312983  0.36427066  0.15455371     0.00100
H1344       H  0.84333012  0.36304272  0.30267898     0.14600
H1345       H  0.79861540  0.47300487  0.24956441     0.14400
C1346       C  0.85347416  0.23273948  0.02799140     0.86200
C1347       C  0.88069920  0.26379444  0.49639509    -0.54000
C1348       C  0.89481701  0.30384071  0.01374802     0.09100
C1349       C  0.87868218  0.31223986  0.06259502     0.20100
C1350       C  0.88482715  0.23027648  0.07395711    -0.54800
C1351       C  0.89737347  0.27367892  0.09314263     0.09200
C1352       C  0.81445046  0.26207232  0.04694126    -0.54300
C1353       C  0.82698950  0.30379135  0.06137327     0.09800
H1354       H  0.89447799  0.25137648  0.46388872     0.14300
H1355       H  0.88755205  0.34722791  0.07311511     0.00100
H1356       H  0.88873876  0.19909739  0.09333918     0.14600
H1357       H  0.77880063  0.25223180  0.54861639     0.14400
O1358       O  0.73233614  0.02853216  0.05743472    -0.78800
C1359       C  0.81781224  0.49567624  0.43850048     0.82300
O1360       O  0.69170974  0.42657265  0.04918601    -0.79900
O1361       O  0.79582025  0.35805678  0.01252482    -0.81400
O1362       O  0.89378330  0.48925128  0.04576589    -0.81200
O1363       O  0.79921014  0.06013983  0.07524045    -0.79800
Zn1364     Zn  0.76424219  0.48760104  0.01419487     1.55700
O1365       O  0.89235518  0.41505774  0.02677035    -0.81200
Cd1366     Cd  0.83366723  0.49915136  0.07896391     1.59700
Cd1367     Cd  0.75270285  0.42285270  0.08361310     1.59600
O1368       O  0.83677409  0.47498541  0.14232327    -0.81200
O1369       O  0.79828001  0.45357985  0.04822236    -1.91700
Cd1370     Cd  0.82899465  0.41818714  0.00263544     1.59900
O1371       O  0.76257283  0.45603568  0.14373778    -0.81100
O1372       O  0.82526057  0.45262530  0.44164254    -0.79800
C1373       C  0.68856686  0.43400856  0.00613363     0.82700
C1374       C  0.75615704  0.06327099  0.06779836     0.82400
O1375       O  0.80745650  0.01950828  0.47323557    -0.78700
C1376       C  0.91084767  0.44895284  0.04640487     0.83200
O1377       O  0.72329920  0.44436473  0.48229925    -0.78800
C1378       C  0.80286370  0.45537302  0.16081262     0.83300
C1379       C  0.79646147  0.34098995  0.05282226     0.83700
O1380       O  0.77684995  0.35949357  0.08672494    -0.81300
C1381       C  0.58862653  0.08861561  0.58861879     0.45200
H1382       H  0.60992687  0.10990836  0.60992034    -0.03800
C1383       C  0.53925861  0.03924627  0.53924667     0.45200
H1384       H  0.51861358  0.01860205  0.51860057    -0.03800
C1385       C  0.58377389  0.03736852  0.61022645    -0.17500
C1386       C  0.53737893  0.11022390  0.58376861    -0.17300
C1387       C  0.61023677  0.08376752  0.53737132    -0.17700
C1388       C  0.55489264  0.01037867  0.58337865    -0.17700
C1389       C  0.51039072  0.08337676  0.55488194    -0.17200
C1390       C  0.58339036  0.05488146  0.51038130    -0.17500
C1391       C  0.91316839  0.33861992  0.66316187     0.45200
H1392       H  0.89186759  0.35991729  0.64185900    -0.03800
C1393       C  0.96253688  0.28925036  0.71253752     0.45200
H1394       H  0.98318402  0.26860603  0.73318556    -0.03800
C1395       C  0.91802512  0.28737202  0.64155565    -0.17500
C1396       C  0.96441518  0.36022893  0.66801740    -0.17300
C1397       C  0.89155564  0.33376764  0.71440807    -0.17700
C1398       C  0.94690655  0.26038219  0.66840646    -0.17700
C1399       C  0.99140282  0.33338197  0.69690496    -0.17200
C1400       C  0.91840310  0.30488318  0.74139981    -0.17500
C1401       C  0.97379914  0.10345291  0.51904646     0.86200
C1402       C  0.50539716  0.13065378  0.98797430    -0.54000
C1403       C  0.98804378  0.14476298  0.94792480     0.09100
C1404       C  0.93918549  0.12864175  0.93954408     0.20100
C1405       C  0.92784366  0.13482236  0.52150485    -0.54800
C1406       C  0.90865106  0.14735888  0.97810214     0.09200
C1407       C  0.95483357  0.06442213  0.98973281    -0.54300
C1408       C  0.94038826  0.07694935  0.94801340     0.09800
H1409       H  0.53790886  0.14442742  0.50038371     0.14300
H1410       H  0.92865699  0.13749958  0.90455789     0.00100
H1411       H  0.90846767  0.13874973  0.55268422     0.14600
H1412       H  0.45317367  0.02877346  0.99957957     0.14400
C1413       C  0.89832440  0.26904873  0.77798969     0.86200
C1414       C  0.87111016  0.23798543  0.74639341    -0.54000
C1415       C  0.85699623  0.19793848  0.76374901     0.09100
C1416       C  0.87312828  0.18954775  0.81260128     0.20100
C1417       C  0.86696610  0.27151066  0.82395081    -0.54800
C1418       C  0.85442658  0.22810837  0.84314183     0.09200
C1419       C  0.93735186  0.23972630  0.79694878    -0.54300
C1420       C  0.92482031  0.19800678  0.81138777     0.09800
H1421       H  0.85733287  0.25039935  0.71388391     0.14300
H1422       H  0.86426583  0.15456002  0.82312608     0.00100
H1423       H  0.86304827  0.30269043  0.84332870     0.14600
H1424       H  0.97299981  0.24957391  0.79862257     0.14400
C1425       C  0.73273388  0.02800586  0.85344479     0.86200
C1426       C  0.76381742  0.49641309  0.88064102    -0.54000
C1427       C  0.80386539  0.01377696  0.89474011     0.09100
C1428       C  0.81223511  0.06263162  0.87860842     0.20100
C1429       C  0.73027772  0.07396292  0.88481377    -0.54800
C1430       C  0.77368100  0.09316008  0.89733955     0.09200
C1431       C  0.76203225  0.04697661  0.81440554    -0.54300
C1432       C  0.80375330  0.06142283  0.82691932     0.09800
H1433       H  0.75141501  0.46390219  0.89442492     0.14300
H1434       H  0.84722394  0.07315987  0.88745081     0.00100
H1435       H  0.69909643  0.09333235  0.88875240     0.14600
H1436       H  0.75217628  0.54863095  0.77875917     0.14400
O1437       O  0.51944392  0.47327433  0.80745705    -0.78800
C1438       C  0.93399308  0.00614360  0.68852457     0.82300
O1439       O  0.56008672  0.07520333  0.79920509    -0.79900
O1440       O  0.95602329  0.14374825  0.76255726    -0.81400
O1441       O  0.85800178  0.01257369  0.79572484    -0.81200
O1442       O  0.95256139  0.44166431  0.82522239    -0.79800
Zn1443     Zn  0.98753777  0.01421486  0.76422372     1.55700
O1444       O  0.85943610  0.08677323  0.77675312    -0.79600
Cd1445     Cd  0.91810145  0.00265571  0.82895954     1.59700
Cd1446     Cd  0.99909514  0.07894288  0.83364541     1.59600
O1447       O  0.91499157  0.02679951  0.89233032    -0.81200
O1448       O  0.95350191  0.04824207  0.79824900    -1.91700
Cd1449     Cd  0.92281191  0.08364216  0.75264766     1.59900
O1450       O  0.98919942  0.04572370  0.89375171    -0.81100
O1451       O  0.92656677  0.04919912  0.69165912    -0.79800
C1452       C  0.56322650  0.06777791  0.75615001     0.82700
C1453       C  0.99561810  0.43853221  0.81779850     0.82400
O1454       O  0.94432266  0.48230981  0.72326675    -0.78700
C1455       C  0.84093501  0.05287097  0.79636995     0.83200
O1456       O  0.52848966  0.05743604  0.73231691    -0.78800
C1457       C  0.94890793  0.04639763  0.91082507     0.83300
C1458       C  0.95536185  0.16081476  0.80285300     0.83700
O1459       O  0.97496666  0.14231376  0.83676278    -0.81300
C1460       C  0.83862682  0.16317137  0.91316487     0.45200
H1461       H  0.85992777  0.14187759  0.89186483    -0.03800
C1462       C  0.78926002  0.21254222  0.96253707     0.45200
H1463       H  0.76861484  0.23318691  0.98318394    -0.03800
C1464       C  0.78737825  0.14156490  0.91801451    -0.17500
C1465       C  0.86023764  0.16801961  0.96441191    -0.17300
C1466       C  0.83377612  0.21441857  0.89155698    -0.17700
C1467       C  0.76039081  0.16841274  0.94690185    -0.17700
C1468       C  0.83339212  0.19690623  0.99140208    -0.17200
C1469       C  0.80489522  0.24140950  0.91840504    -0.17500
C1470       C  0.60346911  0.01904804  0.97379003     0.86200
C1471       C  0.63069029  0.48798798  0.50538514    -0.54000
C1472       C  0.64480591  0.44794163  0.98802977     0.09100
C1473       C  0.62867171  0.43954776  0.93918165     0.20100
C1474       C  0.63482386  0.02151113  0.92782569    -0.54800
C1475       C  0.64736768  0.47810875  0.90863755     0.09200
C1476       C  0.56444335  0.48971975  0.95483741    -0.54300
C1477       C  0.57697965  0.44800055  0.94040202     0.09800
H1478       H  0.64446974  0.00040304  0.53789251     0.14300
H1479       H  0.63753834  0.40455930  0.92866087     0.00100
H1480       H  0.63873954  0.05269130  0.90844666     0.14600
H1481       H  0.52879381  0.49956150  0.45316644     0.14400
C1482       C  0.76906469  0.27800226  0.89832546     0.86200
C1483       C  0.73799387  0.24640480  0.87112159    -0.54000
C1484       C  0.69794412  0.26375958  0.85701674     0.09100
C1485       C  0.68956045  0.31261271  0.87314581     0.20100
C1486       C  0.77151840  0.32396050  0.86695885    -0.54800
C1487       C  0.72811355  0.34315011  0.85442672     0.09200
C1488       C  0.73975677  0.29696751  0.93735828    -0.54300
C1489       C  0.69803414  0.31140238  0.92483652     0.09800
H1490       H  0.75040457  0.21389589  0.85734112     0.14300
H1491       H  0.65457252  0.32314011  0.86429398     0.00100
H1492       H  0.80269592  0.34333835  0.86303101     0.14600
H1493       H  0.74961269  0.29863638  0.97300471     0.14400
C1494       C  0.52799101  0.35346083  0.73274126     0.86200
C1495       C  0.99639187  0.38066628  0.76380854    -0.54000
C1496       C  0.51374350  0.39477768  0.80385753     0.09100
C1497       C  0.56260096  0.37865335  0.81224330     0.20100
C1498       C  0.57394807  0.38482661  0.73028217    -0.54800
C1499       C  0.59313894  0.39736470  0.77368460     0.09200
C1500       C  0.54695418  0.31443153  0.76205922    -0.54300
C1501       C  0.56139608  0.32696030  0.80377816     0.09800
H1502       H  0.96388034  0.39443900  0.75139645     0.14300
H1503       H  0.57313066  0.38751348  0.84722871     0.00100
H1504       H  0.59332703  0.38874785  0.69910365     0.14600
H1505       H  0.04861932  0.27878282  0.75221364     0.14400
O1506       O  0.98234622  0.22325891  0.94434472    -0.78800
C1507       C  0.56781614  0.25611697  0.56327781     0.82300
O1508       O  0.94171817  0.32520362  0.95258775    -0.79900
O1509       O  0.54580931  0.39373456  0.98924849    -0.81400
O1510       O  0.64379079  0.26254426  0.95602543    -0.81200
O1511       O  0.54922004  0.19164721  0.92654543    -0.79800
Zn1512     Zn  0.51425620  0.26419077  0.98758042     1.55700
O1513       O  0.64236103  0.33673924  0.97501605    -0.81200
Cd1514     Cd  0.58368137  0.25263578  0.92281587     1.59700
Cd1515     Cd  0.50271016  0.32893122  0.91816004     1.59600
O1516       O  0.58678851  0.27679813  0.85945318    -0.81200
O1517       O  0.54829292  0.29821221  0.95355169    -1.91700
Cd1518     Cd  0.57899679  0.33360916  0.99914342     1.59900
O1519       O  0.51258502  0.29573856  0.85804184    -0.81100
O1520       O  0.57525760  0.29916915  0.56013631    -0.79800
C1521       C  0.93857669  0.31777344  0.99564123     0.82700
C1522       C  0.50616599  0.18851803  0.93398462     0.82400
O1523       O  0.55747023  0.23228356  0.52854107    -0.78700
C1524       C  0.66085415  0.30284276  0.95538331     0.83200
O1525       O  0.97331081  0.30742457  0.51947665    -0.78800
C1526       C  0.55287485  0.29640826  0.84096585     0.83300
C1527       C  0.54645084  0.41080219  0.94895134     0.83700
O1528       O  0.52684494  0.39229551  0.91504702    -0.81300
C1529       C  0.72379739  0.14833778  0.98273657     0.86200
C1530       C  0.75539408  0.12113540  0.51380939    -0.54000
C1531       C  0.73803895  0.10702697  0.55385834     0.09100
C1532       C  0.68918175  0.12314970  0.56223824     0.20100
C1533       C  0.67784113  0.11696941  0.98027758    -0.54800
C1534       C  0.65864806  0.10443244  0.52368003     0.09200
C1535       C  0.70483230  0.18736897  0.51205074    -0.54300
C1536       C  0.69038676  0.17484177  0.55376987     0.09800
H1537       H  0.78790582  0.10736033  0.00140091     0.14300
H1538       H  0.67865425  0.11429254  0.59722480     0.00100
H1539       H  0.65846584  0.11304134  0.94909780     0.14600
H1540       H  0.70317641  0.22301854  0.50220623     0.14400
C1541       C  0.64832013  0.48273701  0.72379301     0.86200
C1542       C  0.62110308  0.01379720  0.75539028    -0.54000
C1543       C  0.60698621  0.05384407  0.73803666     0.09100
C1544       C  0.62311860  0.06223853  0.68918540     0.20100
C1545       C  0.61696282  0.48027559  0.67783146    -0.54800
C1546       C  0.60442099  0.02367822  0.65864246     0.09200
C1547       C  0.68734556  0.01206157  0.70483554    -0.54300
C1548       C  0.67481145  0.05378155  0.69039944     0.09800
H1549       H  0.60732641  0.50138113  0.78789902     0.14300
H1550       H  0.61425275  0.09722614  0.67866160     0.00100
H1551       H  0.61304832  0.44909663  0.65845124     0.14600
H1552       H  0.72299361  0.00221409  0.70315876     0.14400
C1553       C  0.98273807  0.22378452  0.64833553     0.86200
C1554       C  0.51381915  0.25537737  0.62113708    -0.54000
C1555       C  0.55386708  0.23801379  0.60703674     0.09100
C1556       C  0.56223908  0.18915917  0.62316862     0.20100
C1557       C  0.98028094  0.17782746  0.61696786    -0.54800
C1558       C  0.52368379  0.15863025  0.60444067     0.09200
C1559       C  0.51203887  0.20481447  0.68737368    -0.54300
C1560       C  0.55375987  0.19036905  0.67485830     0.09800
H1561       H  0.00141568  0.28788855  0.60735439     0.14300
H1562       H  0.59722776  0.17863022  0.61432402     0.00100
H1563       H  0.94909984  0.15845814  0.61303106     0.14600
H1564       H  0.50218344  0.20315777  0.72302036     0.14400
O1565       O  0.77850069  0.19434569  0.76947057    -0.78800
C1566       C  0.74562427  0.31325175  0.68398707     0.82300
O1567       O  0.67656545  0.20259225  0.81012774    -0.79900
O1568       O  0.60800841  0.23921772  0.70605212    -0.81400
O1569       O  0.73920800  0.20605161  0.60803206    -0.81200
O1570       O  0.81009609  0.17657203  0.70258306    -0.79800
Zn1571     Zn  0.73754985  0.23756996  0.73756503     1.55700
O1572       O  0.66500234  0.22498844  0.60945915    -0.81200
Cd1573     Cd  0.74910210  0.17283703  0.66814326     1.59700
Cd1574     Cd  0.67281428  0.16814888  0.74913909     1.59600
O1575       O  0.72496267  0.10947048  0.66502733    -0.81200
O1576       O  0.70351313  0.20354378  0.70354091    -1.91700
Cd1577     Cd  0.66811324  0.24912882  0.67282876     1.59900
O1578       O  0.70601474  0.10803776  0.73923191    -0.81100
O1579       O  0.70256807  0.31011904  0.67656304    -0.79800
C1580       C  0.68399694  0.24564674  0.81326186     0.82700
C1581       C  0.81323697  0.18400172  0.74563745     0.82400
O1582       O  0.76945210  0.27851050  0.69432972    -0.78700
C1583       C  0.69891523  0.20538829  0.59096013     0.83200
O1584       O  0.69433471  0.26947774  0.77852050    -0.78800
C1585       C  0.70535265  0.09097270  0.69893557     0.83300
C1586       C  0.59094193  0.19892092  0.70540718     0.83700
O1587       O  0.60944160  0.16501934  0.72502691    -0.81300
C1588       C  0.71253493  0.46253757  0.78924399     0.45200
H1589       H  0.73318110  0.48318129  0.76859611    -0.03800
C1590       C  0.66316805  0.41316810  0.83861963     0.45200
H1591       H  0.64186789  0.39187080  0.85992118    -0.03800
C1592       C  0.74140241  0.41840632  0.80487700    -0.17500
C1593       C  0.69690338  0.49140652  0.83337481    -0.17300
C1594       C  0.66840134  0.44690327  0.76038197    -0.17700
C1595       C  0.71441556  0.39155955  0.83376477    -0.17700
C1596       C  0.66802273  0.46441624  0.86022565    -0.17200
C1597       C  0.64155473  0.41801913  0.78737385    -0.17500
C1598       C  0.51906154  0.47378710  0.60345853     0.86200
C1599       C  0.98799219  0.00538458  0.63066512    -0.54000
C1600       C  0.94794285  0.48803021  0.64477075     0.09100
C1601       C  0.93955791  0.43917804  0.62864047     0.20100
C1602       C  0.52151639  0.42782755  0.63482313    -0.54800
C1603       C  0.97811202  0.40863880  0.64735647     0.09200
C1604       C  0.98975121  0.45482446  0.56442630    -0.54300
C1605       C  0.94802905  0.44039079  0.57694949     0.09800
H1606       H  0.50040295  0.03789308  0.64444514     0.14300
H1607       H  0.90457034  0.42865087  0.63749400     0.00100
H1608       H  0.55269429  0.40844898  0.63874943     0.14600
H1609       H  0.99960546  0.95315488  0.52877952     0.14400
C1610       C  0.77799146  0.39832716  0.76904108     0.86200
C1611       C  0.74639350  0.37111905  0.73797538    -0.54000
C1612       C  0.76374580  0.35700676  0.69792686     0.09100
C1613       C  0.81260115  0.37313227  0.68953934     0.20100
C1614       C  0.82395039  0.36696278  0.77150061    -0.54800
C1615       C  0.84314056  0.35442324  0.72809822     0.09200
C1616       C  0.79695166  0.43735571  0.73972078    -0.54300
C1617       C  0.81139237  0.42482534  0.69800195     0.09800
H1618       H  0.71388299  0.35734564  0.75038808     0.14300
H1619       H  0.82312984  0.36427061  0.65455380     0.00100
H1620       H  0.84333010  0.36304258  0.80267904     0.14600
H1621       H  0.79861535  0.47300493  0.74956431     0.14400
C1622       C  0.85347422  0.23273943  0.52799146     0.86200
C1623       C  0.88069918  0.26379454  0.99639517    -0.54000
C1624       C  0.89481698  0.30384066  0.51374798     0.09100
C1625       C  0.87868218  0.31223986  0.56259497     0.20100
C1626       C  0.88482728  0.23027654  0.57395709    -0.54800
C1627       C  0.89737350  0.27367895  0.59314263     0.09200
C1628       C  0.81445050  0.26207224  0.54694135    -0.54300
C1629       C  0.82698952  0.30379133  0.56137321     0.09800
H1630       H  0.89447803  0.25137654  0.96388858     0.14300
H1631       H  0.88755197  0.34722789  0.57311511     0.00100
H1632       H  0.88873895  0.19909741  0.59333925     0.14600
H1633       H  0.77880057  0.25223190  0.04861629     0.14400
O1634       O  0.73233613  0.02853230  0.55743468    -0.78800
C1635       C  0.81781216  0.49567620  0.93850047     0.82300
O1636       O  0.69170984  0.42657250  0.54918599    -0.79900
O1637       O  0.79582013  0.35805684  0.51252484    -0.81400
O1638       O  0.89378326  0.48925118  0.54576580    -0.81200
O1639       O  0.79921010  0.06013997  0.57524058    -0.79800
Zn1640     Zn  0.76424238  0.48760093  0.51419501     1.55700
O1641       O  0.89235520  0.41505763  0.52677031    -0.81200
Cd1642     Cd  0.83366725  0.49915132  0.57896388     1.59700
Cd1643     Cd  0.75270305  0.42285279  0.58361306     1.59600
O1644       O  0.83677416  0.47498531  0.64232316    -0.81200
O1645       O  0.79828020  0.45357980  0.54822239    -1.91700
Cd1646     Cd  0.82899465  0.41818709  0.50263538     1.59900
O1647       O  0.76257286  0.45603577  0.64373778    -0.81100
O1648       O  0.82526049  0.45262526  0.94164258    -0.79800
C1649       C  0.68856687  0.43400859  0.50613363     0.82700
C1650       C  0.75615704  0.06327111  0.56779841     0.82400
O1651       O  0.80745671  0.01950837  0.97323558    -0.78700
C1652       C  0.91084765  0.44895277  0.54640483     0.83200
O1653       O  0.72329923  0.44436457  0.98229924    -0.78800
C1654       C  0.80286377  0.45537305  0.66081257     0.83300
C1655       C  0.79646146  0.34098996  0.55282226     0.83700
O1656       O  0.77685007  0.35949361  0.58672500    -0.81300
C1657       C  0.58862653  0.58861562  0.08861872     0.45200
H1658       H  0.60992702  0.60990851  0.10992034    -0.03800
C1659       C  0.53925869  0.53924630  0.03924669     0.45200
H1660       H  0.51861355  0.51860203  0.01860057    -0.03800
C1661       C  0.58377397  0.53736855  0.11022640    -0.17500
C1662       C  0.53737898  0.61022395  0.08376860    -0.17300
C1663       C  0.61023682  0.58376759  0.03737129    -0.17700
C1664       C  0.55489271  0.51037865  0.08337862    -0.17700
C1665       C  0.51039075  0.58337678  0.05488194    -0.17200
C1666       C  0.58339043  0.55488147  0.01038131    -0.17500
C1667       C  0.91316838  0.83861990  0.16316181     0.45200
H1668       H  0.89186762  0.85991720  0.14185899    -0.03800
C1669       C  0.96253682  0.78925043  0.21253748     0.45200
H1670       H  0.98318409  0.76860595  0.23318571    -0.03800
C1671       C  0.91802511  0.78737196  0.14155566    -0.17500
C1672       C  0.96441522  0.86022888  0.16801731    -0.17300
C1673       C  0.89155565  0.83376766  0.21440804    -0.17700
C1674       C  0.94690654  0.76038216  0.16840648    -0.17700
C1675       C  0.99140283  0.83338196  0.19690492    -0.17200
C1676       C  0.91840309  0.80488322  0.24139981    -0.17500
C1677       C  0.97379914  0.60345296  0.01904646     0.86200
C1678       C  0.50539724  0.63065378  0.48797433    -0.54000
C1679       C  0.98804379  0.64476297  0.44792483     0.09100
C1680       C  0.93918552  0.62864170  0.43954407     0.20100
C1681       C  0.92784369  0.63482241  0.02150489    -0.54800
C1682       C  0.90865108  0.64735887  0.47810214     0.09200
C1683       C  0.95483350  0.56442202  0.48973287    -0.54300
C1684       C  0.94038830  0.57694929  0.44801339     0.09800
H1685       H  0.53790881  0.64442750  0.00038369     0.14300
H1686       H  0.92865703  0.63749957  0.40455794     0.00100
H1687       H  0.90846773  0.63874968  0.05268426     0.14600
H1688       H  0.45317373  0.52877356  0.49957955     0.14400
C1689       C  0.89832434  0.76904882  0.27798974     0.86200
C1690       C  0.87111008  0.73798550  0.24639351    -0.54000
C1691       C  0.85699612  0.69793858  0.26374911     0.09100
C1692       C  0.87312823  0.68954786  0.31260131     0.20100
C1693       C  0.86696598  0.77151075  0.32395088    -0.54800
C1694       C  0.85442647  0.72810841  0.34314185     0.09200
C1695       C  0.93735182  0.73972639  0.29694885    -0.54300
C1696       C  0.92482025  0.69800684  0.31138779     0.09800
H1697       H  0.85733280  0.75039939  0.21388390     0.14300
H1698       H  0.86426579  0.65455999  0.32312611     0.00100
H1699       H  0.86304820  0.80269038  0.34332879     0.14600
H1700       H  0.97299975  0.74957396  0.29862254     0.14400
C1701       C  0.73273389  0.52800590  0.35344476     0.86200
C1702       C  0.76381746  0.99641322  0.38064098    -0.54000
C1703       C  0.80386542  0.51377694  0.39474009     0.09100
C1704       C  0.81223515  0.56263164  0.37860850     0.20100
C1705       C  0.73027765  0.57396297  0.38481374    -0.54800
C1706       C  0.77368097  0.59316007  0.39733960     0.09200
C1707       C  0.76203229  0.54697668  0.31440550    -0.54300
C1708       C  0.80375331  0.56142294  0.32691939     0.09800
H1709       H  0.75141506  0.96390214  0.39442481     0.14300
H1710       H  0.84722384  0.57315985  0.38745089     0.00100
H1711       H  0.69909643  0.59333236  0.38875222     0.14600
H1712       H  0.75217640  0.04863094  0.27875925     0.14400
O1713       O  0.51944371  0.97327430  0.30745708    -0.78800
C1714       C  0.93399307  0.50614345  0.18852463     0.82300
O1715       O  0.56008688  0.57520341  0.29920507    -0.79900
O1716       O  0.95602311  0.64374812  0.26255736    -0.81400
O1717       O  0.85800171  0.51257377  0.29572491    -0.81200
O1718       O  0.95256146  0.94166421  0.32522249    -0.79800
Zn1719     Zn  0.98753784  0.51421483  0.26422364     1.55700
O1720       O  0.85943594  0.58677324  0.27675295    -0.79600
Cd1721     Cd  0.91810137  0.50265570  0.32895961     1.59700
Cd1722     Cd  0.99909504  0.57894296  0.33364526     1.59600
O1723       O  0.91499159  0.52679929  0.39233045    -0.81200
O1724       O  0.95350189  0.54824201  0.29824898    -1.91700
Cd1725     Cd  0.92281179  0.58364196  0.25264772     1.59900
O1726       O  0.98919939  0.54572375  0.39375149    -0.81100
O1727       O  0.92656679  0.54919896  0.19165920    -0.79800
C1728       C  0.56322661  0.56777792  0.25615001     0.82700
C1729       C  0.99561816  0.93853214  0.31779852     0.82400
O1730       O  0.94432275  0.98230973  0.22326675    -0.78700
C1731       C  0.84093499  0.55287105  0.29637001     0.83200
O1732       O  0.52848978  0.55743588  0.23231695    -0.78800
C1733       C  0.94890797  0.54639755  0.41082503     0.83300
C1734       C  0.95536179  0.66081478  0.30285305     0.83700
O1735       O  0.97496655  0.64231380  0.33676285    -0.81300
C1736       C  0.83862684  0.66317135  0.41316487     0.45200
H1737       H  0.85992777  0.64187767  0.39186486    -0.03800
C1738       C  0.78926003  0.71254219  0.46253711     0.45200
H1739       H  0.76861478  0.73318701  0.48318408    -0.03800
C1740       C  0.78737825  0.64156489  0.41801458    -0.17500
C1741       C  0.86023767  0.66801963  0.46441191    -0.17300
C1742       C  0.83377606  0.71441858  0.39155701    -0.17700
C1743       C  0.76039080  0.66841272  0.44690193    -0.17700
C1744       C  0.83339213  0.69690621  0.49140212    -0.17200
C1745       C  0.80489518  0.74140949  0.41840509    -0.17500
C1746       C  0.60346915  0.51904803  0.47379000     0.86200
C1747       C  0.63069030  0.98798805  0.00538518    -0.54000
C1748       C  0.64480591  0.94794172  0.48802980     0.09100
C1749       C  0.62867179  0.93954778  0.43918166     0.20100
C1750       C  0.63482396  0.52151105  0.42782571    -0.54800
C1751       C  0.64736769  0.97810880  0.40863754     0.09200
C1752       C  0.56444333  0.98971967  0.45483731    -0.54300
C1753       C  0.57697973  0.94800049  0.44040198     0.09800
H1754       H  0.64446982  0.50040291  0.03789254     0.14300
H1755       H  0.63753853  0.90455937  0.42866086     0.00100
H1756       H  0.63873966  0.55269128  0.40844663     0.14600
H1757       H  0.52879379  0.99956151  0.95316658     0.14400
C1758       C  0.76906465  0.77800226  0.39832552     0.86200
C1759       C  0.73799385  0.74640471  0.37112171    -0.54000
C1760       C  0.69794413  0.76375956  0.35701680     0.09100
C1761       C  0.68956048  0.81261269  0.37314576     0.20100
C1762       C  0.77151841  0.82396047  0.36695880    -0.54800
C1763       C  0.72811355  0.84315007  0.35442664     0.09200
C1764       C  0.73975671  0.79696755  0.43735829    -0.54300
C1765       C  0.69803408  0.81140239  0.42483649     0.09800
H1766       H  0.75040452  0.71389587  0.35734134     0.14300
H1767       H  0.65457253  0.82314011  0.36429380     0.00100
H1768       H  0.80269583  0.84333832  0.36303099     0.14600
H1769       H  0.74961256  0.79863636  0.47300481     0.14400
C1770       C  0.52799105  0.85346082  0.23274124     0.86200
C1771       C  0.99639178  0.88066621  0.26380856    -0.54000
C1772       C  0.51374348  0.89477764  0.30385750     0.09100
C1773       C  0.56260099  0.87865339  0.31224332     0.20100
C1774       C  0.57394813  0.88482668  0.23028218    -0.54800
C1775       C  0.59313897  0.89736476  0.27368461     0.09200
C1776       C  0.54695427  0.81443161  0.26205924    -0.54300
C1777       C  0.56139615  0.82696031  0.30377818     0.09800
H1778       H  0.96388028  0.89443889  0.25139647     0.14300
H1779       H  0.57313061  0.88751357  0.34722874     0.00100
H1780       H  0.59332712  0.88874790  0.19910375     0.14600
H1781       H  0.04861917  0.77878275  0.25221358     0.14400
O1782       O  0.98234617  0.72325889  0.44434474    -0.78800
C1783       C  0.56781611  0.75611704  0.06327783     0.82300
O1784       O  0.94171826  0.82520343  0.45258776    -0.79900
O1785       O  0.54580939  0.89373457  0.48924847    -0.81400
O1786       O  0.64379077  0.76254425  0.45602549    -0.81200
O1787       O  0.54922004  0.69164725  0.42654527    -0.79800
Zn1788     Zn  0.51425628  0.76419086  0.48758034     1.55700
O1789       O  0.64236083  0.83673928  0.47501587    -0.81200
Cd1790     Cd  0.58368138  0.75263582  0.42281593     1.59700
Cd1791     Cd  0.50271005  0.82893124  0.41816001     1.59600
O1792       O  0.58678844  0.77679802  0.35945319    -0.81200
O1793       O  0.54829286  0.79821230  0.45355167    -1.91700
Cd1794     Cd  0.57899668  0.83360919  0.49914348     1.59900
O1795       O  0.51258495  0.79573847  0.35804177    -0.81100
O1796       O  0.57525747  0.79916923  0.06013623    -0.79800
C1797       C  0.93857669  0.81777339  0.49564122     0.82700
C1798       C  0.50616603  0.68851804  0.43398464     0.82400
O1799       O  0.55747015  0.73228352  0.02854118    -0.78700
C1800       C  0.66085405  0.80284276  0.45538324     0.83200
O1801       O  0.97331093  0.80742464  0.01947657    -0.78800
C1802       C  0.55287483  0.79640822  0.34096586     0.83300
C1803       C  0.54645095  0.91080211  0.44895132     0.83700
O1804       O  0.52684479  0.89229558  0.41504705    -0.81300
C1805       C  0.72379736  0.64833781  0.48273663     0.86200
C1806       C  0.75539420  0.62113537  0.01380935    -0.54000
C1807       C  0.73803901  0.60702696  0.05385831     0.09100
C1808       C  0.68918185  0.62314979  0.06223811     0.20100
C1809       C  0.67784106  0.61696950  0.48027764    -0.54800
C1810       C  0.65864813  0.60443248  0.02368000     0.09200
C1811       C  0.70483242  0.68736907  0.01205059    -0.54300
C1812       C  0.69038684  0.67484183  0.05376977     0.09800
H1813       H  0.78790581  0.60736031  0.50140090     0.14300
H1814       H  0.67865427  0.61429266  0.09722488     0.00100
H1815       H  0.65846576  0.61304147  0.44909782     0.14600
H1816       H  0.70317646  0.72301839  0.00220605     0.14400
C1817       C  0.64832013  0.98273702  0.22379299     0.86200
C1818       C  0.62110318  0.51379731  0.25539027    -0.54000
C1819       C  0.60698631  0.55384418  0.23803663     0.09100
C1820       C  0.62311864  0.56223860  0.18918534     0.20100
C1821       C  0.61696284  0.98027550  0.17783138    -0.54800
C1822       C  0.60442105  0.52367828  0.15864240     0.09200
C1823       C  0.68734555  0.51206161  0.20483546    -0.54300
C1824       C  0.67481148  0.55378161  0.19039942     0.09800
H1825       H  0.60732641  0.00138122  0.28789894     0.14300
H1826       H  0.61425287  0.59722622  0.17866148     0.00100
H1827       H  0.61304849  0.94909672  0.15845127     0.14600
H1828       H  0.72299368  0.50221408  0.20315869     0.14400
C1829       C  0.98273808  0.72378453  0.14833553     0.86200
C1830       C  0.51381918  0.75537735  0.12113711    -0.54000
C1831       C  0.55386715  0.73801389  0.10703679     0.09100
C1832       C  0.56223919  0.68915923  0.12316859     0.20100
C1833       C  0.98028104  0.67782753  0.11696783    -0.54800
C1834       C  0.52368385  0.65863033  0.10444062     0.09200
C1835       C  0.51203895  0.70481450  0.18737374    -0.54300
C1836       C  0.55375994  0.69036908  0.17485830     0.09800
H1837       H  0.00141569  0.78788867  0.10735446     0.14300
H1838       H  0.59722775  0.67863031  0.11432393     0.00100
H1839       H  0.94909987  0.65845806  0.11303106     0.14600
H1840       H  0.50218358  0.70315782  0.22302035     0.14400
O1841       O  0.77850053  0.69434551  0.26947060    -0.78800
C1842       C  0.74562422  0.81325180  0.18398705     0.82300
O1843       O  0.67656560  0.70259224  0.31012780    -0.79900
O1844       O  0.60800841  0.73921778  0.20605220    -0.81400
O1845       O  0.73920790  0.70605165  0.10803211    -0.81200
O1846       O  0.81009613  0.67657208  0.20258313    -0.79800
Zn1847     Zn  0.73754980  0.73757000  0.23756509     1.55700
O1848       O  0.66500218  0.72498826  0.10945921    -0.81200
Cd1849     Cd  0.74910220  0.67283692  0.16814331     1.59700
Cd1850     Cd  0.67281437  0.66814893  0.24913917     1.59600
O1851       O  0.72496277  0.60947046  0.16502741    -0.81200
O1852       O  0.70351322  0.70354379  0.20354098    -1.91700
Cd1853     Cd  0.66811328  0.74912884  0.17282884     1.59900
O1854       O  0.70601481  0.60803781  0.23923198    -0.81100
O1855       O  0.70256798  0.81011916  0.17656312    -0.79800
C1856       C  0.68399706  0.74564671  0.31326193     0.82700
C1857       C  0.81323691  0.68400172  0.24563753     0.82400
O1858       O  0.76945199  0.77851050  0.19432958    -0.78700
C1859       C  0.69891515  0.70538834  0.09096008     0.83200
O1860       O  0.69433479  0.76947778  0.27852060    -0.78800
C1861       C  0.70535267  0.59097275  0.19893563     0.83300
C1862       C  0.59094196  0.69892098  0.20540723     0.83700
O1863       O  0.60944158  0.66501942  0.22502705    -0.81300
C1864       C  0.71253496  0.96253763  0.28924400     0.45200
H1865       H  0.73318112  0.98318133  0.26859610    -0.03800
C1866       C  0.66316808  0.91316814  0.33861960     0.45200
H1867       H  0.64186786  0.89187079  0.35992113    -0.03800
C1868       C  0.74140245  0.91840637  0.30487702    -0.17500
C1869       C  0.69690339  0.99140658  0.33337480    -0.17300
C1870       C  0.66840137  0.94690332  0.26038197    -0.17700
C1871       C  0.71441559  0.89155956  0.33376474    -0.17700
C1872       C  0.66802274  0.96441628  0.36022563    -0.17200
C1873       C  0.64155477  0.91801918  0.28737385    -0.17500
C1874       C  0.51906156  0.97378702  0.10345845     0.86200
C1875       C  0.98799221  0.50538452  0.13066517    -0.54000
C1876       C  0.94794284  0.98803009  0.14477074     0.09100
C1877       C  0.93955797  0.93917797  0.12864044     0.20100
C1878       C  0.52151646  0.92782754  0.13482314    -0.54800
C1879       C  0.97811204  0.90863876  0.14735645     0.09200
C1880       C  0.98975126  0.95482432  0.06442624    -0.54300
C1881       C  0.94802906  0.94039073  0.07694947     0.09800
H1882       H  0.50040304  0.53789301  0.14444514     0.14300
H1883       H  0.90457023  0.92865075  0.13749395     0.00100
H1884       H  0.55269435  0.90844895  0.13874941     0.14600
H1885       H  0.99960550  0.45315489  0.02877944     0.14400
C1886       C  0.77799147  0.89832720  0.26904108     0.86200
C1887       C  0.74639349  0.87111917  0.23797533    -0.54000
C1888       C  0.76374579  0.85700680  0.19792686     0.09100
C1889       C  0.81260117  0.87313226  0.18953934     0.20100
C1890       C  0.82395040  0.86696277  0.27150065    -0.54800
C1891       C  0.84314055  0.85442323  0.22809822     0.09200
C1892       C  0.79695172  0.93735575  0.23972083    -0.54300
C1893       C  0.81139242  0.92482535  0.19800200     0.09800
H1894       H  0.71388286  0.85734586  0.25038800     0.14300
H1895       H  0.82312985  0.86427063  0.15455386     0.00100
H1896       H  0.84333008  0.86304273  0.30267898     0.14600
H1897       H  0.79861539  0.97300497  0.24956434     0.14400
C1898       C  0.85347422  0.73273944  0.02799142     0.86200
C1899       C  0.88069920  0.76379446  0.49639513    -0.54000
C1900       C  0.89481708  0.80384065  0.01374805     0.09100
C1901       C  0.87868227  0.81223988  0.06259506     0.20100
C1902       C  0.88482719  0.73027639  0.07395717    -0.54800
C1903       C  0.89737349  0.77367887  0.09314265     0.09200
C1904       C  0.81445053  0.76207231  0.04694127    -0.54300
C1905       C  0.82698958  0.80379133  0.06137328     0.09800
H1906       H  0.89447798  0.75137648  0.46388867     0.14300
H1907       H  0.88755208  0.84722775  0.07311510     0.00100
H1908       H  0.88873870  0.69909746  0.09333922     0.14600
H1909       H  0.77880055  0.75223189  0.54861640     0.14400
O1910       O  0.73233606  0.52853225  0.05743468    -0.78800
C1911       C  0.81781209  0.99567624  0.43850049     0.82300
O1912       O  0.69170967  0.92657253  0.04918608    -0.79900
O1913       O  0.79582025  0.85805686  0.01252495    -0.81400
O1914       O  0.89378332  0.98925125  0.04576587    -0.81200
O1915       O  0.79921009  0.56013983  0.07524049    -0.79800
Zn1916     Zn  0.76424227  0.98760104  0.01419491     1.55700
O1917       O  0.89235513  0.91505772  0.02677033    -0.81200
Cd1918     Cd  0.83366731  0.99915135  0.07896394     1.59700
Cd1919     Cd  0.75270289  0.92285263  0.08361313     1.59600
O1920       O  0.83677416  0.97498537  0.14232326    -0.81200
O1921       O  0.79828003  0.95357987  0.04822247    -1.91700
Cd1922     Cd  0.82899454  0.91818719  0.00263547     1.59900
O1923       O  0.76257289  0.95603563  0.14373779    -0.81100
O1924       O  0.82526032  0.95262527  0.44164256    -0.79800
C1925       C  0.68856678  0.93400861  0.00613371     0.82700
C1926       C  0.75615701  0.56327103  0.06779838     0.82400
O1927       O  0.80745658  0.51950824  0.47323556    -0.78700
C1928       C  0.91084766  0.94895282  0.04640486     0.83200
O1929       O  0.72329920  0.94436466  0.48229936    -0.78800
C1930       C  0.80286377  0.95537303  0.16081263     0.83300
C1931       C  0.79646156  0.84099000  0.05282235     0.83700
O1932       O  0.77684999  0.85949352  0.08672506    -0.81300
C1933       C  0.58862657  0.58861561  0.58861878     0.45200
H1934       H  0.60992697  0.60990838  0.60992034    -0.03800
C1935       C  0.53925865  0.53924625  0.53924667     0.45200
H1936       H  0.51861365  0.51860209  0.51860061    -0.03800
C1937       C  0.58377394  0.53736853  0.61022644    -0.17500
C1938       C  0.53737899  0.61022389  0.58376861    -0.17300
C1939       C  0.61023680  0.58376754  0.53737132    -0.17700
C1940       C  0.55489267  0.51037865  0.58337867    -0.17700
C1941       C  0.51039078  0.58337674  0.55488193    -0.17200
C1942       C  0.58339039  0.55488147  0.51038131    -0.17500
C1943       C  0.91316839  0.83861995  0.66316185     0.45200
H1944       H  0.89186760  0.85991726  0.64185906    -0.03800
C1945       C  0.96253690  0.78925038  0.71253751     0.45200
H1946       H  0.98318406  0.76860609  0.73318553    -0.03800
C1947       C  0.91802513  0.78737200  0.64155565    -0.17500
C1948       C  0.96441520  0.86022895  0.66801739    -0.17300
C1949       C  0.89155565  0.83376769  0.71440806    -0.17700
C1950       C  0.94690656  0.76038219  0.66840645    -0.17700
C1951       C  0.99140282  0.83338200  0.69690495    -0.17200
C1952       C  0.91840309  0.80488320  0.74139979    -0.17500
C1953       C  0.97379917  0.60345290  0.51904644     0.86200
C1954       C  0.50539715  0.63065388  0.98797434    -0.54000
C1955       C  0.98804372  0.64476297  0.94792481     0.09100
C1956       C  0.93918544  0.62864172  0.93954408     0.20100
C1957       C  0.92784372  0.63482233  0.52150480    -0.54800
C1958       C  0.90865104  0.64735888  0.97810217     0.09200
C1959       C  0.95483344  0.56442214  0.98973289    -0.54300
C1960       C  0.94038822  0.57694932  0.94801343     0.09800
H1961       H  0.53790881  0.64442744  0.50038375     0.14300
H1962       H  0.92865697  0.63749951  0.90455791     0.00100
H1963       H  0.90846765  0.63874964  0.55268427     0.14600
H1964       H  0.45317379  0.52877350  0.99957961     0.14400
C1965       C  0.89832436  0.76904875  0.77798969     0.86200
C1966       C  0.87111005  0.73798544  0.74639345    -0.54000
C1967       C  0.85699612  0.69793850  0.76374910     0.09100
C1968       C  0.87312828  0.68954777  0.81260131     0.20100
C1969       C  0.86696610  0.77151068  0.82395084    -0.54800
C1970       C  0.85442657  0.72810838  0.84314184     0.09200
C1971       C  0.93735186  0.73972638  0.79694877    -0.54300
C1972       C  0.92482035  0.69800681  0.81138773     0.09800
H1973       H  0.85733279  0.75039933  0.71388399     0.14300
H1974       H  0.86426589  0.65456005  0.82312613     0.00100
H1975       H  0.86304837  0.80269043  0.84332876     0.14600
H1976       H  0.97299973  0.74957404  0.79862256     0.14400
C1977       C  0.73273384  0.52800588  0.85344478     0.86200
C1978       C  0.76381749  0.99641310  0.88064103    -0.54000
C1979       C  0.80386537  0.51377689  0.89474007     0.09100
C1980       C  0.81223511  0.56263157  0.87860844     0.20100
C1981       C  0.73027771  0.57396290  0.88481378    -0.54800
C1982       C  0.77368099  0.59316003  0.89733958     0.09200
C1983       C  0.76203227  0.54697663  0.81440554    -0.54300
C1984       C  0.80375331  0.56142288  0.82691933     0.09800
H1985       H  0.75141510  0.96390215  0.89442498     0.14300
H1986       H  0.84722390  0.57315982  0.88745087     0.00100
H1987       H  0.69909638  0.59333238  0.88875241     0.14600
H1988       H  0.75217626  0.04863087  0.77875921     0.14400
O1989       O  0.51944370  0.97327433  0.80745705    -0.78800
C1990       C  0.93399311  0.50614358  0.68852463     0.82300
O1991       O  0.56008678  0.57520347  0.79920506    -0.79900
O1992       O  0.95602335  0.64374822  0.76255726    -0.81400
O1993       O  0.85800184  0.51257385  0.79572483    -0.81200
O1994       O  0.95256142  0.94166428  0.82522241    -0.79800
Zn1995     Zn  0.98753781  0.51421479  0.76422371     1.55700
O1996       O  0.85943616  0.58677338  0.77675313    -0.79600
Cd1997     Cd  0.91810150  0.50265582  0.82895954     1.59700
Cd1998     Cd  0.99909503  0.57894283  0.83364540     1.59600
O1999       O  0.91499153  0.52679944  0.89233036    -0.81200
O2000       O  0.95350196  0.54824203  0.79824895    -1.91700
Cd2001     Cd  0.92281198  0.58364212  0.75264771     1.59900
O2002       O  0.98919936  0.54572363  0.89375169    -0.81100
O2003       O  0.92656683  0.54919911  0.69165922    -0.79800
C2004       C  0.56322654  0.56777792  0.75615001     0.82700
C2005       C  0.99561813  0.93853220  0.81779849     0.82400
O2006       O  0.94432267  0.98230988  0.72326672    -0.78700
C2007       C  0.84093506  0.55287109  0.79636995     0.83200
O2008       O  0.52848972  0.55743594  0.73231693    -0.78800
C2009       C  0.94890790  0.54639754  0.91082511     0.83300
C2010       C  0.95536193  0.66081481  0.80285298     0.83700
O2011       O  0.97496665  0.64231375  0.83676280    -0.81300
C2012       C  0.83862686  0.66317130  0.91316486     0.45200
H2013       H  0.85992776  0.64187758  0.89186488    -0.03800
C2014       C  0.78926007  0.71254218  0.96253706     0.45200
H2015       H  0.76861484  0.73318699  0.98318399    -0.03800
C2016       C  0.78737828  0.64156485  0.91801454    -0.17500
C2017       C  0.86023764  0.66801958  0.96441193    -0.17300
C2018       C  0.83377611  0.71441853  0.89155698    -0.17700
C2019       C  0.76039086  0.66841269  0.94690186    -0.17700
C2020       C  0.83339216  0.69690622  0.99140209    -0.17200
C2021       C  0.80489522  0.74140946  0.91840504    -0.17500
C2022       C  0.60346921  0.51904797  0.97379006     0.86200
C2023       C  0.63069028  0.98798798  0.50538513    -0.54000
C2024       C  0.64480589  0.94794177  0.98802980     0.09100
C2025       C  0.62867176  0.93954789  0.93918165     0.20100
C2026       C  0.63482396  0.52151098  0.92782571    -0.54800
C2027       C  0.64736768  0.97810890  0.90863755     0.09200
C2028       C  0.56444328  0.98971973  0.95483742    -0.54300
C2029       C  0.57697968  0.94800057  0.94040197     0.09800
H2030       H  0.64446978  0.50040302  0.53789250     0.14300
H2031       H  0.63753855  0.90455949  0.92866090     0.00100
H2032       H  0.63873971  0.55269113  0.90844669     0.14600
H2033       H  0.52879376  0.99956149  0.45316644     0.14400
C2034       C  0.76906470  0.77800226  0.89832549     0.86200
C2035       C  0.73799395  0.74640476  0.87112154    -0.54000
C2036       C  0.69794416  0.76375958  0.85701671     0.09100
C2037       C  0.68956045  0.81261268  0.87314580     0.20100
C2038       C  0.77151842  0.82396048  0.86695887    -0.54800
C2039       C  0.72811357  0.84315009  0.85442674     0.09200
C2040       C  0.73975672  0.79696746  0.93735829    -0.54300
C2041       C  0.69803409  0.81140232  0.92483653     0.09800
H2042       H  0.75040462  0.71389601  0.85734113     0.14300
H2043       H  0.65457256  0.82314009  0.86429392     0.00100
H2044       H  0.80269597  0.84333834  0.86303100     0.14600
H2045       H  0.74961268  0.79863640  0.97300477     0.14400
C2046       C  0.52799101  0.85346088  0.73274127     0.86200
C2047       C  0.99639173  0.88066627  0.76380859    -0.54000
C2048       C  0.51374346  0.89477768  0.80385757     0.09100
C2049       C  0.56260097  0.87865341  0.81224332     0.20100
C2050       C  0.57394809  0.88482667  0.73028215    -0.54800
C2051       C  0.59313894  0.89736474  0.77368461     0.09200
C2052       C  0.54695420  0.81443166  0.76205924    -0.54300
C2053       C  0.56139611  0.82696035  0.80377817     0.09800
H2054       H  0.96388032  0.89443897  0.75139656     0.14300
H2055       H  0.57313064  0.88751350  0.84722872     0.00100
H2056       H  0.59332708  0.88874779  0.69910371     0.14600
H2057       H  0.04861937  0.77878283  0.75221355     0.14400
O2058       O  0.98234623  0.72325888  0.94434468    -0.78800
C2059       C  0.56781623  0.75611705  0.56327781     0.82300
O2060       O  0.94171823  0.82520356  0.95258777    -0.79900
O2061       O  0.54580940  0.89373459  0.98924848    -0.81400
O2062       O  0.64379068  0.76254427  0.95602550    -0.81200
O2063       O  0.54922000  0.69164718  0.92654538    -0.79800
Zn2064     Zn  0.51425621  0.76419070  0.98758042     1.55700
O2065       O  0.64236093  0.83673927  0.97501598    -0.81200
Cd2066     Cd  0.58368136  0.75263572  0.92281585     1.59700
Cd2067     Cd  0.50271016  0.82893132  0.91816003     1.59600
O2068       O  0.58678848  0.77679810  0.85945317    -0.81200
O2069       O  0.54829287  0.79821216  0.95355167    -1.91700
Cd2070     Cd  0.57899675  0.83360913  0.99914339     1.59900
O2071       O  0.51258501  0.79573856  0.85804184    -0.81100
O2072       O  0.57525764  0.79916923  0.56013635    -0.79800
C2073       C  0.93857675  0.81777338  0.99564125     0.82700
C2074       C  0.50616595  0.68851803  0.93398459     0.82400
O2075       O  0.55747031  0.73228365  0.52854104    -0.78700
C2076       C  0.66085406  0.80284275  0.95538330     0.83200
O2077       O  0.97331087  0.80742478  0.51947664    -0.78800
C2078       C  0.55287485  0.79640829  0.84096585     0.83300
C2079       C  0.54645092  0.91080219  0.94895133     0.83700
O2080       O  0.52684485  0.89229558  0.91504706    -0.81300
C2081       C  0.72379745  0.64833775  0.98273657     0.86200
C2082       C  0.75539409  0.62113535  0.51380936    -0.54000
C2083       C  0.73803896  0.60702688  0.55385829     0.09100
C2084       C  0.68918180  0.62314965  0.56223822     0.20100
C2085       C  0.67784118  0.61696939  0.98027758    -0.54800
C2086       C  0.65864806  0.60443246  0.52368002     0.09200
C2087       C  0.70483237  0.68736906  0.51205079    -0.54300
C2088       C  0.69038681  0.67484172  0.55376992     0.09800
H2089       H  0.78790585  0.60736024  0.00140090     0.14300
H2090       H  0.67865433  0.61429243  0.59722481     0.00100
H2091       H  0.65846590  0.61304128  0.94909783     0.14600
H2092       H  0.70317650  0.72301846  0.50220639     0.14400
C2093       C  0.64832015  0.98273698  0.72379302     0.86200
C2094       C  0.62110307  0.51379719  0.75539029    -0.54000
C2095       C  0.60698621  0.55384407  0.73803668     0.09100
C2096       C  0.62311854  0.56223857  0.68918542     0.20100
C2097       C  0.61696283  0.98027557  0.67783148    -0.54800
C2098       C  0.60442100  0.52367824  0.65864245     0.09200
C2099       C  0.68734550  0.51206170  0.70483556    -0.54300
C2100       C  0.67481138  0.55378166  0.69039948     0.09800
H2101       H  0.60732642  0.00138113  0.78789900     0.14300
H2102       H  0.61425264  0.59722617  0.67866162     0.00100
H2103       H  0.61304837  0.94909660  0.65845126     0.14600
H2104       H  0.72299365  0.50221424  0.70315874     0.14400
C2105       C  0.98273805  0.72378450  0.64833551     0.86200
C2106       C  0.51381920  0.75537735  0.62113706    -0.54000
C2107       C  0.55386714  0.73801379  0.60703672     0.09100
C2108       C  0.56223915  0.68915916  0.62316861     0.20100
C2109       C  0.98028097  0.67782744  0.61696784    -0.54800
C2110       C  0.52368386  0.65863023  0.60444070     0.09200
C2111       C  0.51203894  0.70481448  0.68737367    -0.54300
C2112       C  0.55375994  0.69036906  0.67485830     0.09800
H2113       H  0.00141568  0.78788856  0.60735444     0.14300
H2114       H  0.59722782  0.67863021  0.61432403     0.00100
H2115       H  0.94909983  0.65845808  0.61303095     0.14600
H2116       H  0.50218348  0.70315777  0.72302035     0.14400
O2117       O  0.77850053  0.69434553  0.76947062    -0.78800
C2118       C  0.74562427  0.81325174  0.68398708     0.82300
O2119       O  0.67656553  0.70259219  0.81012776    -0.79900
O2120       O  0.60800851  0.73921767  0.70605217    -0.81400
O2121       O  0.73920790  0.70605155  0.60803222    -0.81200
O2122       O  0.81009605  0.67657217  0.70258310    -0.79800
Zn2123     Zn  0.73754988  0.73756989  0.73756502     1.55700
O2124       O  0.66500224  0.72498843  0.60945915    -0.81200
Cd2125     Cd  0.74910215  0.67283695  0.66814329     1.59700
Cd2126     Cd  0.67281432  0.66814885  0.74913910     1.59600
O2127       O  0.72496276  0.60947045  0.66502733    -0.81200
O2128       O  0.70351316  0.70354376  0.70354088    -1.91700
Cd2129     Cd  0.66811327  0.74912889  0.67282876     1.59900
O2130       O  0.70601481  0.60803788  0.73923188    -0.81100
O2131       O  0.70256806  0.81011905  0.67656307    -0.79800
C2132       C  0.68399701  0.74564668  0.81326185     0.82700
C2133       C  0.81323686  0.68400170  0.74563754     0.82400
O2134       O  0.76945210  0.77851049  0.69432970    -0.78700
C2135       C  0.69891513  0.70538821  0.59096024     0.83200
O2136       O  0.69433477  0.76947766  0.77852048    -0.78800
C2137       C  0.70535257  0.59097283  0.69893555     0.83300
C2138       C  0.59094201  0.69892087  0.70540717     0.83700
O2139       O  0.60944165  0.66501927  0.72502689    -0.81300
C2140       C  0.71253497  0.96253754  0.78924400     0.45200
H2141       H  0.73318112  0.98318121  0.76859616    -0.03800
C2142       C  0.66316802  0.91316809  0.83861970     0.45200
H2143       H  0.64186798  0.89187093  0.85992112    -0.03800
C2144       C  0.74140242  0.91840629  0.80487704    -0.17500
C2145       C  0.69690342  0.99140653  0.83337480    -0.17300
C2146       C  0.66840138  0.94690324  0.76038197    -0.17700
C2147       C  0.71441558  0.89155954  0.83376480    -0.17700
C2148       C  0.66802274  0.96441632  0.86022564    -0.17200
C2149       C  0.64155476  0.91801913  0.78737386    -0.17500
C2150       C  0.51906150  0.97378712  0.60345850     0.86200
C2151       C  0.98799222  0.50538451  0.63066514    -0.54000
C2152       C  0.94794282  0.98803017  0.64477073     0.09100
C2153       C  0.93955790  0.93917800  0.62864048     0.20100
C2154       C  0.52151643  0.92782764  0.63482316    -0.54800
C2155       C  0.97811204  0.90863882  0.64735647     0.09200
C2156       C  0.98975120  0.95482443  0.56442627    -0.54300
C2157       C  0.94802904  0.94039070  0.57694950     0.09800
H2158       H  0.50040312  0.53789311  0.64444521     0.14300
H2159       H  0.90457032  0.92865086  0.63749407     0.00100
H2160       H  0.55269436  0.90844908  0.63874946     0.14600
H2161       H  0.99960557  0.45315488  0.52877950     0.14400
C2162       C  0.77799145  0.89832715  0.76904108     0.86200
C2163       C  0.74639340  0.87111902  0.73797538    -0.54000
C2164       C  0.76374577  0.85700678  0.69792682     0.09100
C2165       C  0.81260110  0.87313232  0.68953933     0.20100
C2166       C  0.82395038  0.86696282  0.77150059    -0.54800
C2167       C  0.84314056  0.85442330  0.72809820     0.09200
C2168       C  0.79695163  0.93735572  0.73972081    -0.54300
C2169       C  0.81139232  0.92482539  0.69800196     0.09800
H2170       H  0.71388307  0.85734569  0.75038801     0.14300
H2171       H  0.82312979  0.86427079  0.65455375     0.00100
H2172       H  0.84333016  0.86304272  0.80267903     0.14600
H2173       H  0.79861539  0.97300494  0.74956440     0.14400
C2174       C  0.85347417  0.73273944  0.52799145     0.86200
C2175       C  0.88069926  0.76379449  0.99639521    -0.54000
C2176       C  0.89481702  0.80384066  0.51374801     0.09100
C2177       C  0.87868221  0.81223985  0.56259501     0.20100
C2178       C  0.88482717  0.73027650  0.57395710    -0.54800
C2179       C  0.89737349  0.77367889  0.59314264     0.09200
C2180       C  0.81445048  0.76207231  0.54694134    -0.54300
C2181       C  0.82698952  0.80379135  0.56137329     0.09800
H2182       H  0.89447810  0.75137650  0.96388862     0.14300
H2183       H  0.88755210  0.84722780  0.57311515     0.00100
H2184       H  0.88873874  0.69909728  0.59333925     0.14600
H2185       H  0.77880063  0.75223186  0.04861629     0.14400
O2186       O  0.73233619  0.52853218  0.55743464    -0.78800
C2187       C  0.81781227  0.99567633  0.93850050     0.82300
O2188       O  0.69170970  0.92657274  0.54918611    -0.79900
O2189       O  0.79582020  0.85805679  0.51252484    -0.81400
O2190       O  0.89378330  0.98925111  0.54576578    -0.81200
O2191       O  0.79921011  0.56013985  0.57524061    -0.79800
Zn2192     Zn  0.76424221  0.98760108  0.51419501     1.55700
O2193       O  0.89235523  0.91505755  0.52677028    -0.81200
Cd2194     Cd  0.83366726  0.99915144  0.57896386     1.59700
Cd2195     Cd  0.75270285  0.92285276  0.58361307     1.59600
O2196       O  0.83677410  0.97498547  0.64232321    -0.81200
O2197       O  0.79828007  0.95357985  0.54822240    -1.91700
Cd2198     Cd  0.82899465  0.91818704  0.50263539     1.59900
O2199       O  0.76257284  0.95603574  0.64373773    -0.81100
O2200       O  0.82526053  0.95262538  0.94164260    -0.79800
C2201       C  0.68856683  0.93400865  0.50613371     0.82700
C2202       C  0.75615704  0.56327100  0.56779839     0.82400
O2203       O  0.80745654  0.51950825  0.97323552    -0.78700
C2204       C  0.91084766  0.94895268  0.54640486     0.83200
O2205       O  0.72329915  0.94436474  0.98229936    -0.78800
C2206       C  0.80286371  0.95537310  0.66081256     0.83300
C2207       C  0.79646149  0.84099000  0.55282228     0.83700
O2208       O  0.77684994  0.85949362  0.58672496    -0.81300
loop_ 
_geom_bond_atom_site_label_1 
_geom_bond_atom_site_label_2 
_geom_bond_distance 
_geom_bond_site_symmetry_2 
_ccdc_geom_bond_type 
C1            H2   1.075       .  S
C1            C7   1.627       .  S
C1            C6   1.627       .  S
C1            C5   1.627       .  S
C3            H4   1.042       .  S
C3            C9   1.603       .  S
C3            C8   1.603       .  S
C3           C10   1.603       .  S
C5            C8   1.392       .  D
C5          C166   1.585       .  S
C6            C9   1.392       .  D
C6          C178   1.585       .  S
C7           C10   1.392       .  D
C7          C154   1.585       .  S
C8          C770   1.603   1_545  S
C9         C1125   1.603   1_455  S
C10         C366   1.603   1_554  S
C11          H12   1.075       .  S
C11          C17   1.627       .  S
C11          C16   1.627       .  S
C11          C15   1.627       .  S
C13          H14   1.042       .  S
C13          C19   1.603       .  S
C13          C18   1.603       .  S
C13          C20   1.603       .  S
C15          C18   1.392       .  D
C15         C247   1.585       .  S
C16          C19   1.392       .  D
C16         C223   1.585       .  S
C17          C20   1.392       .  D
C17         C235   1.585       .  S
C18         C173   1.603       .  S
C19        C1218   1.603       .  S
C20          C33   1.603       .  S
C21          C25   1.623       .  S
C21        C1113   1.603       .  S
C21        C1402   1.515   1_554  S
C21         C303   1.526   1_554  S
C22        C1401   1.515   1_455  S
C22        C1127   1.337   1_455  D
C22         H305   1.090       .  S
C23          C24   1.519       .  S
C23        C1126   1.337       .  D
C23        C1246   1.438       .  S
C24          H30   1.095       .  S
C24          C28   1.527       .  S
C24          C26   1.533       .  S
C25         C302   1.430   1_554  D
C25          H31   1.076       .  S
C26         C301   1.430       .  D
C26          C85   1.585       .  S
C27         C297   1.526       .  S
C27          C28   1.337       .  D
C27        H1136   1.079       .  S
C28          C77   1.424       .  S
H29         C298   1.090   1_554  S
H32        C1131   1.079       .  S
C33          C34   1.515       .  S
C33          C39   1.526       .  S
C33          C37   1.623       .  S
C34          C35   1.337       .  D
C34          H41   1.090       .  S
C35          C36   1.519       .  S
C35         C201   1.438       .  S
C36          H42   1.095       .  S
C36          C40   1.527       .  S
C36          C38   1.533       .  S
C37          C38   1.430       .  D
C37          H43   1.076       .  S
C38          C86   1.585       .  S
C39          C40   1.337       .  D
C39          H44   1.079       .  S
C40          C78   1.424       .  S
C45          C51   1.526       .  S
C45          C49   1.623       .  S
C45         C598   1.515   1_545  S
C45         C765   1.603   1_545  S
C46         C597   1.515       .  S
C46         C599   1.337       .  D
C46          H53   1.090       .  S
C47          C48   1.519       .  S
C47         C598   1.337   1_545  D
C47         C807   1.438   1_545  S
C48          H54   1.095       .  S
C48          C52   1.527       .  S
C48          C50   1.533       .  S
C49          C50   1.430       .  D
C49          H55   1.076       .  S
C50          C84   1.585       .  S
C51          C52   1.337       .  D
C51         H608   1.079       .  S
C52          C75   1.424       .  S
H56         C603   1.079       .  S
O57        C1177   1.264   1_455  A
O57       Zn1719   1.968   1_455  S
C58         C772   1.438   1_545  S
C58          O71   1.276       .  A
C58         O626   1.264   1_545  A
O59          C72   1.276       .  A
O59       Cd1170   2.044   1_455  S
O60          C78   1.275       .  A
O60         Cd69   2.022       .  S
O61          C75   1.275       .  A
O61         Cd65   2.022       .  S
O62          C73   1.276       .  A
O62        Cd617   2.044       .  S
Zn63       O1713   1.968   1_545  S
Zn63        O626   1.968   1_545  S
Zn63       O1180   1.968       .  S
Zn63         O68   1.717       .  S
O64          C75   1.262       .  A
O64         Cd69   1.978       .  S
Cd65         O67   1.978       .  S
Cd65        O614   2.044   1_545  S
Cd65         O68   1.905       .  S
Cd66         O70   2.022       .  S
Cd66         O79   1.978       .  S
Cd66       O1163   2.044       .  S
Cd66         O68   1.905       .  S
O67          C77   1.262       .  A
O68         Cd69   1.905       .  S
Cd69         O71   2.044       .  S
O70          C77   1.275       .  A
C72         C163   1.438       .  S
C72          O76   1.264       .  A
C73        C1220   1.438       .  S
C73        O1161   1.264       .  A
O74         C610   1.264       .  A
O74        Zn615   1.968       .  S
O76       Zn1167   1.968   1_455  S
C78          O79   1.262       .  A
C80          H81   1.075       .  S
C80          C86   1.627       .  S
C80          C85   1.627       .  S
C80          C84   1.627       .  S
C82          H83   1.042       .  S
C82          C88   1.603       .  S
C82          C87   1.603       .  S
C82          C89   1.603       .  S
C84          C87   1.392       .  D
C85          C88   1.392       .  D
C86          C89   1.392       .  D
C87         C149   1.603       .  S
C88         C518   1.603       .  S
C89         C102   1.603       .  S
C90          C94   1.623       .  S
C90         C286   1.603       .  S
C90         C919   1.515   1_545  S
C90         C648   1.526   1_545  S
C91         C918   1.515   1_554  S
C91         C368   1.337   1_554  D
C91         H650   1.090       .  S
C92          C93   1.519       .  S
C92         C367   1.337       .  D
C92         C545   1.438       .  S
C93          H99   1.095       .  S
C93          C97   1.527       .  S
C93          C95   1.533       .  S
C94         C647   1.430   1_545  D
C94         H100   1.076       .  S
C95         C646   1.430       .  D
C95         C216   1.585       .  S
C96         C642   1.526       .  S
C96          C97   1.337       .  D
C96         H377   1.079       .  S
C97         C147   1.424       .  S
H98         C643   1.090   1_545  S
H101        C372   1.079       .  S
C102        C103   1.515       .  S
C102        C108   1.526       .  S
C102        C106   1.623       .  S
C103        C104   1.337       .  D
C103        H110   1.090       .  S
C104        C105   1.519       .  S
C104        C200   1.438       .  S
C105        H111   1.095       .  S
C105        C109   1.527       .  S
C105        C107   1.533       .  S
C106        C107   1.430       .  D
C106        H112   1.076       .  S
C107        C215   1.585       .  S
C108        C109   1.337       .  D
C108        H113   1.079       .  S
C109        C144   1.424       .  S
C114        C120   1.526       .  S
C114        C118   1.623       .  S
C114       C1123   1.603   1_455  S
C114       C1219   1.515   1_455  S
C115       C1218   1.515       .  S
C115       C1220   1.337       .  D
C115        H122   1.090       .  S
C116        C117   1.519       .  S
C116       C1219   1.337   1_455  D
C116       C1177   1.438   1_455  S
C117        H123   1.095       .  S
C117        C121   1.527       .  S
C117        C119   1.533       .  S
C118        C119   1.430       .  D
C118        H124   1.076       .  S
C119        C217   1.585       .  S
C120        C121   1.337       .  D
C120       H1229   1.079       .  S
C121        C146   1.424       .  S
H125       C1224   1.079       .  S
O126       C1246   1.264       .  A
O126      Zn1236   1.968       .  S
C127        C175   1.438       .  S
C127        O143   1.264       .  A
C127        O140   1.276       .  A
O128        C141   1.276       .  A
O128      Cd1239   2.044       .  S
O129        C147   1.275       .  A
O129       Cd138   2.022       .  S
O130        C144   1.275       .  A
O130       Cd134   2.022       .  S
O131        C142   1.276       .  A
O131       Cd134   2.044       .  S
Zn132      O1230   1.968   1_455  S
Zn132       O419   1.968       .  S
Zn132      O1525   1.968   1_455  S
Zn132       O137   1.717       .  S
O133        C144   1.262       .  A
O133       Cd138   1.978       .  S
Cd134       O136   1.978       .  S
Cd134       O137   1.905       .  S
Cd135       O139   2.021       .  S
Cd135       O148   1.978       .  S
Cd135      O1232   2.044   1_455  S
Cd135       O137   1.905       .  S
O136        C146   1.262       .  A
O137       Cd138   1.905       .  S
Cd138       O416   2.044       .  S
O139        C146   1.275       .  A
O140       Cd414   2.044   1_554  S
C141        C520   1.438       .  S
C141        O421   1.264       .  A
C142       C1127   1.438   1_455  S
C142       O1230   1.264   1_455  A
O143       Zn408   1.968   1_554  S
O145        C417   1.264   1_554  A
O145      Zn1512   1.968   1_554  S
C147        O148   1.262       .  A
C149        C153   1.623       .  S
C149        C426   1.515       .  S
C149        C431   1.526       .  S
C150        C425   1.515   1_554  S
C150        C151   1.337       .  D
C150        H433   1.090       .  S
C151        C152   1.519       .  S
C151        C270   1.438       .  S
C152        H158   1.095       .  S
C152        C156   1.527       .  S
C152        C154   1.533       .  S
C153        C430   1.430       .  D
C153        H159   1.076       .  S
C154        C429   1.430   1_554  D
C155        C425   1.526   1_554  S
C155        C156   1.337       .  D
C155        H160   1.079       .  S
C156        C203   1.424       .  S
H157        C426   1.090       .  S
C161        C165   1.623       .  S
C161        C214   1.603       .  S
C161        C714   1.515       .  S
C161        C719   1.526       .  S
C162        C713   1.515   1_545  S
C162        C163   1.337       .  D
C162        H721   1.090       .  S
C163        C164   1.519       .  S
C164        H170   1.095       .  S
C164        C168   1.527       .  S
C164        C166   1.533       .  S
C165        C718   1.430       .  D
C165        H171   1.076       .  S
C166        C717   1.430   1_545  D
C167        C713   1.526   1_545  S
C167        C168   1.337       .  D
C167        H172   1.079       .  S
C168        C205   1.424       .  S
H169        C714   1.090       .  S
C173        C177   1.623       .  S
C173       C1278   1.515       .  S
C173       C1283   1.526       .  S
C174       C1277   1.515   1_455  S
C174        C175   1.337       .  D
C174       H1285   1.090       .  S
C175        C176   1.519       .  S
C176        H182   1.095       .  S
C176        C180   1.527       .  S
C176        C178   1.533       .  S
C177       C1282   1.430       .  D
C177        H183   1.076       .  S
C178       C1281   1.430   1_455  D
C179       C1277   1.526   1_455  S
C179        C180   1.337       .  D
C179        H184   1.079       .  S
C180        C206   1.424       .  S
H181       C1278   1.090       .  S
O185        C201   1.264       .  A
O185       Zn191   1.968       .  S
C186        C232   1.438       .  S
C186        O202   1.264       .  A
C186        O199   1.276       .  A
O187        C200   1.276       .  A
O187       Cd194   2.044       .  S
O188        C206   1.275       .  A
O188       Cd197   2.022       .  S
O189        C203   1.275       .  A
O189       Cd193   2.022       .  S
O190        C201   1.276       .  A
O190       Cd193   2.044       .  S
Zn191       O202   1.968       .  S
Zn191       O204   1.968       .  S
Zn191       O196   1.717       .  S
O192        C203   1.262       .  A
O192       Cd197   1.978       .  S
Cd193       O195   1.978       .  S
Cd193       O196   1.905       .  S
Cd194       O198   2.022       .  S
Cd194       O207   1.978       .  S
Cd194       O196   1.905       .  S
O195        C205   1.262       .  A
O196       Cd197   1.905       .  S
Cd197       O199   2.044       .  S
O198        C205   1.275       .  A
C200        O204   1.264       .  A
C206        O207   1.262       .  A
C208        H209   1.042       .  S
C208        C214   1.603       .  S
C208        C213   1.603       .  S
C208        C212   1.603       .  S
C210        H211   1.075       .  S
C210        C216   1.627       .  S
C210        C215   1.627       .  S
C210        C217   1.627       .  S
C212        C230   1.603       .  S
C212        C215   1.392       .  D
C213        C597   1.603       .  S
C213        C216   1.392       .  D
C214        C217   1.392       .  D
C218        C222   1.623       .  S
C218        C560   1.603       .  S
C218       C1875   1.515   1_455  S
C218       C1328   1.526   1_455  S
C219       C1874   1.515   1_545  S
C219        C772   1.337   1_545  D
C219       H1330   1.090       .  S
C220        C221   1.519       .  S
C220        C771   1.337       .  D
C220        C610   1.438       .  S
C221        H227   1.095       .  S
C221        C225   1.527       .  S
C221        C223   1.533       .  S
C222       C1327   1.430   1_455  D
C222        H228   1.076       .  S
C223       C1326   1.430       .  D
C224       C1322   1.526       .  S
C224        C225   1.337       .  D
C224        H781   1.079       .  S
C225        C272   1.424       .  S
H226       C1323   1.090   1_455  S
H229        C776   1.079       .  S
C230        C231   1.515       .  S
C230        C236   1.526       .  S
C230        C234   1.623       .  S
C231        C232   1.337       .  D
C231        H238   1.090       .  S
C232        C233   1.519       .  S
C233        H239   1.095       .  S
C233        C237   1.527       .  S
C233        C235   1.533       .  S
C234        C235   1.430       .  D
C234        H240   1.076       .  S
C236        C237   1.337       .  D
C236        H241   1.079       .  S
C237        C274   1.424       .  S
C242        C248   1.526       .  S
C242        C246   1.623       .  S
C242        C364   1.603   1_554  S
C242        C519   1.515   1_554  S
C243        C518   1.515       .  S
C243        C520   1.337       .  D
C243        H250   1.090       .  S
C244        C245   1.519       .  S
C244        C519   1.337   1_554  D
C244        C417   1.438   1_554  S
C245        H251   1.095       .  S
C245        C249   1.527       .  S
C245        C247   1.533       .  S
C246        C247   1.430       .  D
C246        H252   1.076       .  S
C248        C249   1.337       .  D
C248        H529   1.079       .  S
C249        C275   1.424       .  S
H253        C524   1.079       .  S
O254        C270   1.264       .  A
O254       Zn812   1.968   1_545  S
C255        C599   1.438       .  S
C255        O268   1.276       .  A
C255        O823   1.264       .  A
O256        C269   1.276       .  A
O256       Cd263   2.044       .  S
O257        C275   1.275       .  A
O257       Cd266   2.022       .  S
O258        C272   1.275       .  A
O258       Cd262   2.022       .  S
O259        C270   1.276       .  A
O259       Cd814   2.044   1_545  S
Zn260       O806   1.968       .  S
Zn260      O1099   1.968   1_554  S
Zn260       O549   1.968   1_554  S
Zn260       O265   1.717       .  S
O261        C272   1.262       .  A
O261       Cd266   1.978       .  S
Cd262       O264   1.978       .  S
Cd262       O811   2.044       .  S
Cd262       O265   1.905       .  S
Cd263       O267   2.021       .  S
Cd263       O276   1.978       .  S
Cd263       O265   1.905       .  S
O264        C274   1.262       .  A
O265       Cd266   1.905       .  S
Cd266       O544   2.044   1_554  S
O267        C274   1.275       .  A
O268       Cd542   2.044       .  S
C269        C368   1.438   1_554  S
C269        O549   1.264   1_554  A
O271        C807   1.264   1_545  A
O271      Zn1088   1.968   1_545  S
O273        C545   1.264       .  A
O273       Zn536   1.968       .  S
C275        O276   1.262       .  A
C277        H278   1.075       .  S
C277        C283   1.627       .  S
C277        C282   1.627       .  S
C277        C281   1.627       .  S
C279        H280   1.042       .  S
C279        C285   1.603       .  S
C279        C284   1.603       .  S
C279        C286   1.603       .  S
C281        C284   1.392       .  D
C281        C442   1.585       .  S
C282        C285   1.392       .  D
C282        C454   1.585       .  S
C283        C286   1.392       .  D
C283        C430   1.585       .  S
C284       C1046   1.603   1_545  S
C285       C1401   1.603   1_455  S
C287        H288   1.075       .  S
C287        C293   1.627       .  S
C287        C292   1.627       .  S
C287        C291   1.627       .  S
C289        H290   1.042       .  S
C289        C295   1.603       .  S
C289        C294   1.603       .  S
C289        C296   1.603       .  S
C291        C294   1.392       .  D
C291        C523   1.585       .  S
C292        C295   1.392       .  D
C292        C499   1.585       .  S
C293        C296   1.392       .  D
C293        C511   1.585       .  S
C294        C449   1.603       .  S
C295       C1494   1.603       .  S
C296        C309   1.603       .  S
C297       C1389   1.603       .  S
C297       C1126   1.515       .  S
C297        C301   1.623       .  S
C298       C1125   1.515   1_456  S
C298       C1403   1.337   1_455  D
C299        C300   1.519       .  S
C299       C1402   1.337       .  D
C299       C1522   1.438       .  S
C300        H306   1.095       .  S
C300        C304   1.527       .  S
C300        C302   1.533       .  S
C301        H307   1.076       .  S
C302        C361   1.585       .  S
C303        C304   1.337       .  D
C303       H1412   1.079       .  S
C304        C353   1.424       .  S
H308       C1407   1.079       .  S
C309        C310   1.515       .  S
C309        C315   1.526       .  S
C309        C313   1.623       .  S
C310        C311   1.337       .  D
C310        H317   1.090       .  S
C311        C312   1.519       .  S
C311        C477   1.438       .  S
C312        H318   1.095       .  S
C312        C316   1.527       .  S
C312        C314   1.533       .  S
C313        C314   1.430       .  D
C313        H319   1.076       .  S
C314        C362   1.585       .  S
C315        C316   1.337       .  D
C315        H320   1.079       .  S
C316        C354   1.424       .  S
C321        C874   1.515   1_545  S
C321        C327   1.526       .  S
C321        C325   1.623       .  S
C321       C1041   1.603   1_545  S
C322        C873   1.515       .  S
C322        C875   1.337       .  D
C322        H329   1.090       .  S
C323        C324   1.519       .  S
C323        C874   1.337   1_545  D
C323       C1083   1.438   1_545  S
C324        H330   1.095       .  S
C324        C328   1.527       .  S
C324        C326   1.533       .  S
C325        C326   1.430       .  D
C325        H331   1.076       .  S
C326        C360   1.585       .  S
C327        C328   1.337       .  D
C327        H884   1.079       .  S
C328        C351   1.424       .  S
H332        C879   1.079       .  S
O333       C1453   1.264   1_455  A
O333      Zn1995   1.968   1_455  S
C334       C1048   1.438   1_545  S
C334        O902   1.264   1_545  A
C334        O347   1.276       .  A
O335        C348   1.276       .  A
O335      Cd1446   2.044   1_455  S
O336        C354   1.275       .  A
O336       Cd345   2.022       .  S
O337        C351   1.275       .  A
O337       Cd341   2.022       .  S
O338        C349   1.276       .  A
O338       Cd893   2.044       .  S
Zn339      O1989   1.968   1_545  S
Zn339       O902   1.968   1_545  S
Zn339      O1456   1.968       .  S
Zn339       O344   1.717       .  S
O340        C351   1.262       .  A
O340       Cd345   1.978       .  S
Cd341       O890   2.044   1_545  S
Cd341       O343   1.978       .  S
Cd341       O344   1.905       .  S
Cd342      O1439   2.044       .  S
Cd342       O346   2.022       .  S
Cd342       O355   1.978       .  S
Cd342       O344   1.905       .  S
O343        C353   1.262       .  A
O344       Cd345   1.905       .  S
Cd345       O347   2.044       .  S
O346        C353   1.275       .  A
C348        C439   1.438       .  S
C348        O352   1.264       .  A
C349       C1496   1.438       .  S
C349       O1437   1.264       .  A
O350        C886   1.264       .  A
O350       Zn891   1.968       .  S
O352      Zn1443   1.968   1_455  S
C354        O355   1.262       .  A
C356        H357   1.075       .  S
C356        C362   1.627       .  S
C356        C361   1.627       .  S
C356        C360   1.627       .  S
C358        H359   1.042       .  S
C358        C364   1.603       .  S
C358        C363   1.603       .  S
C358        C365   1.603       .  S
C360        C363   1.392       .  D
C361        C364   1.392       .  D
C362        C365   1.392       .  D
C363        C425   1.603       .  S
C365        C378   1.603       .  S
C366        C643   1.515   1_546  S
C366        C924   1.526   1_545  S
C366        C370   1.623       .  S
C367        C642   1.515       .  S
C367        H926   1.090       .  S
C368        C369   1.519       .  S
C369        H375   1.095       .  S
C369        C373   1.527       .  S
C369        C371   1.533       .  S
C370        C923   1.430   1_545  D
C370        H376   1.076       .  S
C371        C922   1.430       .  D
C371        C492   1.585       .  S
C372        C918   1.526       .  S
C372        C373   1.337       .  D
C373        C423   1.424       .  S
H374        C919   1.090   1_545  S
C378        C379   1.515       .  S
C378        C384   1.526       .  S
C378        C382   1.623       .  S
C379        C380   1.337       .  D
C379        H386   1.090       .  S
C380        C381   1.519       .  S
C380        C476   1.438       .  S
C381        H387   1.095       .  S
C381        C385   1.527       .  S
C381        C383   1.533       .  S
C382        C383   1.430       .  D
C382        H388   1.076       .  S
C383        C491   1.585       .  S
C384        C385   1.337       .  D
C384        H389   1.079       .  S
C385        C420   1.424       .  S
C390       C1399   1.603   1_455  S
C390       C1495   1.515   1_455  S
C390        C396   1.526       .  S
C390        C394   1.623       .  S
C391       C1494   1.515       .  S
C391       C1496   1.337       .  D
C391        H398   1.090       .  S
C392        C393   1.519       .  S
C392       C1495   1.337   1_455  D
C392       C1453   1.438   1_455  S
C393        H399   1.095       .  S
C393        C397   1.527       .  S
C393        C395   1.533       .  S
C394        C395   1.430       .  D
C394        H400   1.076       .  S
C395        C493   1.585       .  S
C396        C397   1.337       .  D
C396       H1505   1.079       .  S
C397        C422   1.424       .  S
H401       C1500   1.079       .  S
O402       C1522   1.264       .  A
O402      Zn1512   1.968       .  S
C403        C451   1.438       .  S
C403        O419   1.264       .  A
C403        O416   1.276       .  A
O404        C417   1.276       .  A
O404      Cd1515   2.044       .  S
O405        C423   1.275       .  A
O405       Cd414   2.022       .  S
O406        C420   1.275       .  A
O406       Cd410   2.022       .  S
O407        C418   1.276       .  A
O407       Cd410   2.044       .  S
Zn408      O1506   1.968   1_455  S
Zn408      O1249   1.968   1_456  S
Zn408       O413   1.717       .  S
O409        C420   1.262       .  A
O409       Cd414   1.978       .  S
Cd410       O412   1.978       .  S
Cd410       O413   1.905       .  S
Cd411      O1508   2.044   1_455  S
Cd411       O415   2.021       .  S
Cd411       O424   1.978       .  S
Cd411       O413   1.905       .  S
O412        C422   1.262       .  A
O413       Cd414   1.905       .  S
O415        C422   1.275       .  A
C418       C1403   1.438   1_455  S
C418       O1506   1.264   1_455  A
O421      Zn1236   1.968       .  S
C423        O424   1.262       .  A
C425        C429   1.623       .  S
C426        C427   1.337       .  D
C427        C428   1.519       .  S
C427        C546   1.438       .  S
C428        H434   1.095       .  S
C428        C432   1.527       .  S
C428        C430   1.533       .  S
C429        H435   1.076       .  S
C431        C432   1.337       .  D
C431        H436   1.079       .  S
C432        C479   1.424       .  S
C437        C990   1.515       .  S
C437        C995   1.526       .  S
C437        C441   1.623       .  S
C437        C490   1.603       .  S
C438        C989   1.515   1_545  S
C438        C439   1.337       .  D
C438        H997   1.090       .  S
C439        C440   1.519       .  S
C440        H446   1.095       .  S
C440        C444   1.527       .  S
C440        C442   1.533       .  S
C441        C994   1.430       .  D
C441        H447   1.076       .  S
C442        C993   1.430   1_545  D
C443        C989   1.526   1_545  S
C443        C444   1.337       .  D
C443        H448   1.079       .  S
C444        C481   1.424       .  S
H445        C990   1.090       .  S
C449       C1554   1.515       .  S
C449       C1559   1.526       .  S
C449        C453   1.623       .  S
C450       C1553   1.515   1_455  S
C450        C451   1.337       .  D
C450       H1561   1.090       .  S
C451        C452   1.519       .  S
C452        H458   1.095       .  S
C452        C456   1.527       .  S
C452        C454   1.533       .  S
C453       C1558   1.430       .  D
C453        H459   1.076       .  S
C454       C1557   1.430   1_455  D
C455       C1553   1.526   1_455  S
C455        C456   1.337       .  D
C455        H460   1.079       .  S
C456        C482   1.424       .  S
H457       C1554   1.090       .  S
O461        C477   1.264       .  A
O461       Zn467   1.968       .  S
C462        C508   1.438       .  S
C462        O478   1.264       .  A
C462        O475   1.276       .  A
O463        C476   1.276       .  A
O463       Cd470   2.044       .  S
O464        C482   1.275       .  A
O464       Cd473   2.022       .  S
O465        C479   1.275       .  A
O465       Cd469   2.022       .  S
O466        C477   1.276       .  A
O466       Cd469   2.044       .  S
Zn467       O478   1.968       .  S
Zn467       O480   1.968       .  S
Zn467       O472   1.717       .  S
O468        C479   1.262       .  A
O468       Cd473   1.978       .  S
Cd469       O471   1.978       .  S
Cd469       O472   1.905       .  S
Cd470       O474   2.022       .  S
Cd470       O483   1.978       .  S
Cd470       O472   1.905       .  S
O471        C481   1.262       .  A
O472       Cd473   1.905       .  S
Cd473       O475   2.044       .  S
O474        C481   1.275       .  A
C476        O480   1.264       .  A
C482        O483   1.262       .  A
C484        H485   1.042       .  S
C484        C490   1.603       .  S
C484        C489   1.603       .  S
C484        C488   1.603       .  S
C486        H487   1.075       .  S
C486        C492   1.627       .  S
C486        C491   1.627       .  S
C486        C493   1.627       .  S
C488        C506   1.603       .  S
C488        C491   1.392       .  D
C489        C873   1.603       .  S
C489        C492   1.392       .  D
C490        C493   1.392       .  D
C494        C836   1.603       .  S
C494       C2151   1.515   1_455  S
C494       C1604   1.526   1_455  S
C494        C498   1.623       .  S
C495       C2150   1.515   1_545  S
C495       C1048   1.337   1_545  D
C495       H1606   1.090       .  S
C496        C497   1.519       .  S
C496       C1047   1.337       .  D
C496        C886   1.438       .  S
C497        H503   1.095       .  S
C497        C501   1.527       .  S
C497        C499   1.533       .  S
C498       C1603   1.430   1_455  D
C498        H504   1.076       .  S
C499       C1602   1.430       .  D
C500       C1598   1.526       .  S
C500        C501   1.337       .  D
C500       H1057   1.079       .  S
C501        C548   1.424       .  S
H502       C1599   1.090   1_455  S
H505       C1052   1.079       .  S
C506        C507   1.515       .  S
C506        C512   1.526       .  S
C506        C510   1.623       .  S
C507        C508   1.337       .  D
C507        H514   1.090       .  S
C508        C509   1.519       .  S
C509        H515   1.095       .  S
C509        C513   1.527       .  S
C509        C511   1.533       .  S
C510        C511   1.430       .  D
C510        H516   1.076       .  S
C512        C513   1.337       .  D
C512        H517   1.079       .  S
C513        C550   1.424       .  S
C518        C524   1.526       .  S
C518        C522   1.623       .  S
C519        H526   1.090       .  S
C520        C521   1.519       .  S
C521        H527   1.095       .  S
C521        C525   1.527       .  S
C521        C523   1.533       .  S
C522        C523   1.430       .  D
C522        H528   1.076       .  S
C524        C525   1.337       .  D
C525        C551   1.424       .  S
O530        C546   1.264       .  A
O530      Zn1088   1.968   1_545  S
C531        C875   1.438       .  S
C531       O1099   1.264       .  A
C531        O544   1.276       .  A
O532        C545   1.276       .  A
O532       Cd539   2.044       .  S
O533        C551   1.275       .  A
O533       Cd542   2.022       .  S
O534        C548   1.275       .  A
O534       Cd538   2.022       .  S
O535        C546   1.276       .  A
O535      Cd1090   2.044   1_545  S
Zn536      O1082   1.968       .  S
Zn536       O823   1.968       .  S
Zn536       O541   1.717       .  S
O537        C548   1.262       .  A
O537       Cd542   1.978       .  S
Cd538      O1087   2.044       .  S
Cd538       O540   1.978       .  S
Cd538       O541   1.905       .  S
Cd539       O543   2.021       .  S
Cd539       O552   1.978       .  S
Cd539       O541   1.905       .  S
O540        C550   1.262       .  A
O541       Cd542   1.905       .  S
O543        C550   1.275       .  A
O547       C1083   1.264   1_545  A
O547       Zn812   1.968   1_546  S
C551        O552   1.262       .  A
C553        H554   1.075       .  S
C553        C559   1.627       .  S
C553        C558   1.627       .  S
C553        C557   1.627       .  S
C555        H556   1.042       .  S
C555        C561   1.603       .  S
C555        C560   1.603       .  S
C555        C562   1.603       .  S
C557        C560   1.392       .  D
C557        C718   1.585       .  S
C558        C561   1.392       .  D
C558        C730   1.585       .  S
C559        C562   1.392       .  D
C559        C706   1.585       .  S
C561       C1677   1.603   1_455  S
C562        C918   1.603   1_554  S
C563        H564   1.075       .  S
C563        C569   1.627       .  S
C563        C568   1.627       .  S
C563        C567   1.627       .  S
C565        H566   1.042       .  S
C565        C571   1.603       .  S
C565        C570   1.603       .  S
C565        C572   1.603       .  S
C567        C570   1.392       .  D
C567        C799   1.585       .  S
C568        C571   1.392       .  D
C568        C775   1.585       .  S
C569        C572   1.392       .  D
C569        C787   1.585       .  S
C570        C725   1.603       .  S
C571       C1770   1.603       .  S
C572        C585   1.603       .  S
C573       C1665   1.603       .  S
C573       C1954   1.515   1_554  S
C573        C855   1.526   1_554  S
C573        C577   1.623       .  S
C574       C1953   1.515   1_455  S
C574       C1679   1.337   1_455  D
C574        H857   1.090       .  S
C575        C576   1.519       .  S
C575       C1678   1.337       .  D
C575       C1798   1.438       .  S
C576        H582   1.095       .  S
C576        C580   1.527       .  S
C576        C578   1.533       .  S
C577        C854   1.430   1_554  D
C577        H583   1.076       .  S
C578        C853   1.430       .  D
C578        C637   1.585       .  S
C579        C849   1.526       .  S
C579        C580   1.337       .  D
C579       H1688   1.079       .  S
C580        C629   1.424       .  S
H581        C850   1.090   1_554  S
H584       C1683   1.079       .  S
C585        C586   1.515       .  S
C585        C591   1.526       .  S
C585        C589   1.623       .  S
C586        C587   1.337       .  D
C586        H593   1.090       .  S
C587        C588   1.519       .  S
C587        C753   1.438       .  S
C588        H594   1.095       .  S
C588        C592   1.527       .  S
C588        C590   1.533       .  S
C589        C590   1.430       .  D
C589        H595   1.076       .  S
C590        C638   1.585       .  S
C591        C592   1.337       .  D
C591        H596   1.079       .  S
C592        C630   1.424       .  S
C597        C603   1.526       .  S
C597        C601   1.623       .  S
C598        H605   1.090       .  S
C599        C600   1.519       .  S
C600        H606   1.095       .  S
C600        C604   1.527       .  S
C600        C602   1.533       .  S
C601        C602   1.430       .  D
C601        H607   1.076       .  S
C602        C636   1.585       .  S
C603        C604   1.337       .  D
C604        C627   1.424       .  S
O609       C1729   1.264   1_455  A
O609      Zn1167   1.968   1_465  S
C610        O623   1.276       .  A
O611        C624   1.276       .  A
O611      Cd1722   2.044   1_455  S
O612        C630   1.275       .  A
O612       Cd621   2.022       .  S
O613        C627   1.275       .  A
O613       Cd617   2.022       .  S
O614        C625   1.276       .  A
Zn615      O1161   1.968       .  S
Zn615      O1732   1.968       .  S
Zn615       O620   1.717       .  S
O616        C627   1.262       .  A
O616       Cd621   1.978       .  S
Cd617       O619   1.978       .  S
Cd617       O620   1.905       .  S
Cd618      O1715   2.044       .  S
Cd618       O622   2.022       .  S
Cd618       O631   1.978       .  S
Cd618       O620   1.905       .  S
O619        C629   1.262       .  A
O620       Cd621   1.905       .  S
Cd621       O623   2.044       .  S
O622        C629   1.275       .  A
C624        C715   1.438       .  S
C624        O628   1.264       .  A
C625       C1772   1.438       .  S
C625       O1713   1.264       .  A
O628      Zn1719   1.968   1_455  S
C630        O631   1.262       .  A
C632        H633   1.075       .  S
C632        C638   1.627       .  S
C632        C637   1.627       .  S
C632        C636   1.627       .  S
C634        H635   1.042       .  S
C634        C640   1.603       .  S
C634        C639   1.603       .  S
C634        C641   1.603       .  S
C636        C639   1.392       .  D
C637        C640   1.392       .  D
C638        C641   1.392       .  D
C639        C701   1.603       .  S
C640       C1070   1.603       .  S
C641        C654   1.603       .  S
C642        C838   1.603       .  S
C642        C646   1.623       .  S
C643        C920   1.337   1_554  D
C644        C645   1.519       .  S
C644        C919   1.337       .  D
C644       C1097   1.438       .  S
C645        H651   1.095       .  S
C645        C649   1.527       .  S
C645        C647   1.533       .  S
C646        H652   1.076       .  S
C647        C768   1.585       .  S
C648        C649   1.337       .  D
C648        H929   1.079       .  S
C649        C699   1.424       .  S
H653        C924   1.079       .  S
C654        C655   1.515       .  S
C654        C660   1.526       .  S
C654        C658   1.623       .  S
C655        C656   1.337       .  D
C655        H662   1.090       .  S
C656        C657   1.519       .  S
C656        C752   1.438       .  S
C657        H663   1.095       .  S
C657        C661   1.527       .  S
C657        C659   1.533       .  S
C658        C659   1.430       .  D
C658        H664   1.076       .  S
C659        C767   1.585       .  S
C660        C661   1.337       .  D
C660        H665   1.079       .  S
C661        C696   1.424       .  S
C666       C1675   1.603   1_455  S
C666       C1771   1.515   1_455  S
C666        C672   1.526       .  S
C666        C670   1.623       .  S
C667       C1770   1.515       .  S
C667       C1772   1.337       .  D
C667        H674   1.090       .  S
C668        C669   1.519       .  S
C668       C1771   1.337   1_455  D
C668       C1729   1.438   1_455  S
C669        H675   1.095       .  S
C669        C673   1.527       .  S
C669        C671   1.533       .  S
C670        C671   1.430       .  D
C670        H676   1.076       .  S
C671        C769   1.585       .  S
C672        C673   1.337       .  D
C672       H1781   1.079       .  S
C673        C698   1.424       .  S
H677       C1776   1.079       .  S
O678       C1798   1.264       .  A
O678      Zn1788   1.968       .  S
C679        C727   1.438       .  S
C679        O695   1.264       .  A
C679        O692   1.276       .  A
O680        C693   1.276       .  A
O680      Cd1791   2.044       .  S
O681        C699   1.275       .  A
O681       Cd690   2.022       .  S
O682        C696   1.275       .  A
O682       Cd686   2.022       .  S
O683        C694   1.276       .  A
O683       Cd686   2.044       .  S
Zn684      O1782   1.968   1_455  S
Zn684       O971   1.968       .  S
Zn684      O2077   1.968   1_455  S
Zn684       O689   1.717       .  S
O685        C696   1.262       .  A
O685       Cd690   1.978       .  S
Cd686       O688   1.978       .  S
Cd686       O689   1.905       .  S
Cd687      O1784   2.044   1_455  S
Cd687       O691   2.021       .  S
Cd687       O700   1.978       .  S
Cd687       O689   1.905       .  S
O688        C698   1.262       .  A
O689       Cd690   1.905       .  S
Cd690       O968   2.044       .  S
O691        C698   1.275       .  A
O692       Cd966   2.044   1_554  S
C693       C1072   1.438       .  S
C693        O973   1.264       .  A
C694       C1679   1.438   1_455  S
C694       O1782   1.264   1_455  A
O695       Zn960   1.968   1_554  S
O697        C969   1.264   1_554  A
O697      Zn2064   1.968   1_554  S
C699        O700   1.262       .  A
C701        C978   1.515       .  S
C701        C983   1.526       .  S
C701        C705   1.623       .  S
C702        C977   1.515   1_554  S
C702        C703   1.337       .  D
C702        H985   1.090       .  S
C703        C704   1.519       .  S
C703        C822   1.438       .  S
C704        H710   1.095       .  S
C704        C708   1.527       .  S
C704        C706   1.533       .  S
C705        C982   1.430       .  D
C705        H711   1.076       .  S
C706        C981   1.430   1_554  D
C707        C977   1.526   1_554  S
C707        C708   1.337       .  D
C707        H712   1.079       .  S
C708        C755   1.424       .  S
H709        C978   1.090       .  S
C713        C717   1.623       .  S
C713        C766   1.603       .  S
C714        C715   1.337       .  D
C715        C716   1.519       .  S
C716        H722   1.095       .  S
C716        C720   1.527       .  S
C716        C718   1.533       .  S
C717        H723   1.076       .  S
C719        C720   1.337       .  D
C719        H724   1.079       .  S
C720        C757   1.424       .  S
C725       C1830   1.515       .  S
C725       C1835   1.526       .  S
C725        C729   1.623       .  S
C726       C1829   1.515   1_455  S
C726        C727   1.337       .  D
C726       H1837   1.090       .  S
C727        C728   1.519       .  S
C728        H734   1.095       .  S
C728        C732   1.527       .  S
C728        C730   1.533       .  S
C729       C1834   1.430       .  D
C729        H735   1.076       .  S
C730       C1833   1.430   1_455  D
C731       C1829   1.526   1_455  S
C731        C732   1.337       .  D
C731        H736   1.079       .  S
C732        C758   1.424       .  S
H733       C1830   1.090       .  S
O737        C753   1.264       .  A
O737       Zn743   1.968       .  S
C738        C784   1.438       .  S
C738        O754   1.264       .  A
C738        O751   1.276       .  A
O739        C752   1.276       .  A
O739       Cd746   2.044       .  S
O740        C758   1.275       .  A
O740       Cd749   2.022       .  S
O741        C755   1.275       .  A
O741       Cd745   2.022       .  S
O742        C753   1.276       .  A
O742       Cd745   2.044       .  S
Zn743       O754   1.968       .  S
Zn743       O756   1.968       .  S
Zn743       O748   1.717       .  S
O744        C755   1.262       .  A
O744       Cd749   1.978       .  S
Cd745       O747   1.978       .  S
Cd745       O748   1.905       .  S
Cd746       O750   2.022       .  S
Cd746       O759   1.978       .  S
Cd746       O748   1.905       .  S
O747        C757   1.262       .  A
O748       Cd749   1.905       .  S
Cd749       O751   2.044       .  S
O750        C757   1.275       .  A
C752        O756   1.264       .  A
C758        O759   1.262       .  A
C760        H761   1.042       .  S
C760        C766   1.603       .  S
C760        C765   1.603       .  S
C760        C764   1.603       .  S
C762        H763   1.075       .  S
C762        C768   1.627       .  S
C762        C767   1.627       .  S
C762        C769   1.627       .  S
C764        C782   1.603       .  S
C764        C767   1.392       .  D
C765        C768   1.392       .  D
C766        C769   1.392       .  D
C770       C1323   1.515   1_465  S
C770       C1880   1.526   1_455  S
C770        C774   1.623       .  S
C771       C1322   1.515       .  S
C771       H1882   1.090       .  S
C772        C773   1.519       .  S
C773        H779   1.095       .  S
C773        C777   1.527       .  S
C773        C775   1.533       .  S
C774       C1879   1.430   1_455  D
C774        H780   1.076       .  S
C775       C1878   1.430       .  D
C776       C1874   1.526       .  S
C776        C777   1.337       .  D
C777        C824   1.424       .  S
H778       C1875   1.090   1_455  S
C782        C783   1.515       .  S
C782        C788   1.526       .  S
C782        C786   1.623       .  S
C783        C784   1.337       .  D
C783        H790   1.090       .  S
C784        C785   1.519       .  S
C785        H791   1.095       .  S
C785        C789   1.527       .  S
C785        C787   1.533       .  S
C786        C787   1.430       .  D
C786        H792   1.076       .  S
C788        C789   1.337       .  D
C788        H793   1.079       .  S
C789        C826   1.424       .  S
C794        C916   1.603   1_554  S
C794       C1071   1.515   1_554  S
C794        C800   1.526       .  S
C794        C798   1.623       .  S
C795       C1070   1.515       .  S
C795       C1072   1.337       .  D
C795        H802   1.090       .  S
C796        C797   1.519       .  S
C796       C1071   1.337   1_554  D
C796        C969   1.438   1_554  S
C797        H803   1.095       .  S
C797        C801   1.527       .  S
C797        C799   1.533       .  S
C798        C799   1.430       .  D
C798        H804   1.076       .  S
C800        C801   1.337       .  D
C800       H1081   1.079       .  S
C801        C827   1.424       .  S
H805       C1076   1.079       .  S
O806        C822   1.264       .  A
C807        O820   1.276       .  A
O808        C821   1.276       .  A
O808       Cd815   2.044       .  S
O809        C827   1.275       .  A
O809       Cd818   2.022       .  S
O810        C824   1.275       .  A
O810       Cd814   2.022       .  S
O811        C822   1.276       .  A
Zn812      O1101   1.968   1_554  S
Zn812       O817   1.717       .  S
O813        C824   1.262       .  A
O813       Cd818   1.978       .  S
Cd814       O816   1.978       .  S
Cd814       O817   1.905       .  S
Cd815       O819   2.021       .  S
Cd815       O828   1.978       .  S
Cd815       O817   1.905       .  S
O816        C826   1.262       .  A
O817       Cd818   1.905       .  S
Cd818      O1096   2.044   1_554  S
O819        C826   1.275       .  A
O820      Cd1094   2.044       .  S
C821        C920   1.438   1_554  S
C821       O1101   1.264   1_554  A
O825       C1097   1.264       .  A
O825      Zn1088   1.968       .  S
C827        O828   1.262       .  A
C829        H830   1.075       .  S
C829        C835   1.627       .  S
C829        C834   1.627       .  S
C829        C833   1.627       .  S
C831        H832   1.042       .  S
C831        C837   1.603       .  S
C831        C836   1.603       .  S
C831        C838   1.603       .  S
C833        C836   1.392       .  D
C833        C994   1.585       .  S
C834        C837   1.392       .  D
C834       C1006   1.585       .  S
C835        C838   1.392       .  D
C835        C982   1.585       .  S
C837       C1953   1.603   1_455  S
C839        H840   1.075       .  S
C839        C845   1.627       .  S
C839        C844   1.627       .  S
C839        C843   1.627       .  S
C841        H842   1.042       .  S
C841        C847   1.603       .  S
C841        C846   1.603       .  S
C841        C848   1.603       .  S
C843        C846   1.392       .  D
C843       C1075   1.585       .  S
C844        C847   1.392       .  D
C844       C1051   1.585       .  S
C845        C848   1.392       .  D
C845       C1063   1.585       .  S
C846       C1001   1.603       .  S
C847       C2046   1.603       .  S
C848        C861   1.603       .  S
C849       C1941   1.603       .  S
C849       C1678   1.515       .  S
C849        C853   1.623       .  S
C850       C1677   1.515   1_456  S
C850       C1955   1.337   1_455  D
C851        C852   1.519       .  S
C851       C1954   1.337       .  D
C851       C2074   1.438       .  S
C852        H858   1.095       .  S
C852        C856   1.527       .  S
C852        C854   1.533       .  S
C853        H859   1.076       .  S
C854        C913   1.585       .  S
C855        C856   1.337       .  D
C855       H1964   1.079       .  S
C856        C905   1.424       .  S
H860       C1959   1.079       .  S
C861        C862   1.515       .  S
C861        C867   1.526       .  S
C861        C865   1.623       .  S
C862        C863   1.337       .  D
C862        H869   1.090       .  S
C863        C864   1.519       .  S
C863       C1029   1.438       .  S
C864        H870   1.095       .  S
C864        C868   1.527       .  S
C864        C866   1.533       .  S
C865        C866   1.430       .  D
C865        H871   1.076       .  S
C866        C914   1.585       .  S
C867        C868   1.337       .  D
C867        H872   1.079       .  S
C868        C906   1.424       .  S
C873        C879   1.526       .  S
C873        C877   1.623       .  S
C874        H881   1.090       .  S
C875        C876   1.519       .  S
C876        H882   1.095       .  S
C876        C880   1.527       .  S
C876        C878   1.533       .  S
C877        C878   1.430       .  D
C877        H883   1.076       .  S
C878        C912   1.585       .  S
C879        C880   1.337       .  D
C880        C903   1.424       .  S
O885       C2005   1.264   1_455  A
O885      Zn1443   1.968   1_465  S
C886        O899   1.276       .  A
O887        C900   1.276       .  A
O887      Cd1998   2.044   1_455  S
O888        C906   1.275       .  A
O888       Cd897   2.022       .  S
O889        C903   1.275       .  A
O889       Cd893   2.022       .  S
O890        C901   1.276       .  A
Zn891      O1437   1.968       .  S
Zn891      O2008   1.968       .  S
Zn891       O896   1.717       .  S
O892        C903   1.262       .  A
O892       Cd897   1.978       .  S
Cd893       O895   1.978       .  S
Cd893       O896   1.905       .  S
Cd894      O1991   2.044       .  S
Cd894       O898   2.022       .  S
Cd894       O907   1.978       .  S
Cd894       O896   1.905       .  S
O895        C905   1.262       .  A
O896       Cd897   1.905       .  S
Cd897       O899   2.044       .  S
O898        C905   1.275       .  A
C900        C991   1.438       .  S
C900        O904   1.264       .  A
C901       C2048   1.438       .  S
C901       O1989   1.264       .  A
O904      Zn1995   1.968   1_455  S
C906        O907   1.262       .  A
C908        H909   1.075       .  S
C908        C914   1.627       .  S
C908        C913   1.627       .  S
C908        C912   1.627       .  S
C910        H911   1.042       .  S
C910        C916   1.603       .  S
C910        C915   1.603       .  S
C910        C917   1.603       .  S
C912        C915   1.392       .  D
C913        C916   1.392       .  D
C914        C917   1.392       .  D
C915        C977   1.603       .  S
C917        C930   1.603       .  S
C918        C922   1.623       .  S
C920        C921   1.519       .  S
C921        H927   1.095       .  S
C921        C925   1.527       .  S
C921        C923   1.533       .  S
C922        H928   1.076       .  S
C923       C1044   1.585       .  S
C924        C925   1.337       .  D
C925        C975   1.424       .  S
C930        C931   1.515       .  S
C930        C936   1.526       .  S
C930        C934   1.623       .  S
C931        C932   1.337       .  D
C931        H938   1.090       .  S
C932        C933   1.519       .  S
C932       C1028   1.438       .  S
C933        H939   1.095       .  S
C933        C937   1.527       .  S
C933        C935   1.533       .  S
C934        C935   1.430       .  D
C934        H940   1.076       .  S
C935       C1043   1.585       .  S
C936        C937   1.337       .  D
C936        H941   1.079       .  S
C937        C972   1.424       .  S
C942       C1951   1.603   1_455  S
C942       C2047   1.515   1_455  S
C942        C948   1.526       .  S
C942        C946   1.623       .  S
C943       C2046   1.515       .  S
C943       C2048   1.337       .  D
C943        H950   1.090       .  S
C944        C945   1.519       .  S
C944       C2047   1.337   1_455  D
C944       C2005   1.438   1_455  S
C945        H951   1.095       .  S
C945        C949   1.527       .  S
C945        C947   1.533       .  S
C946        C947   1.430       .  D
C946        H952   1.076       .  S
C947       C1045   1.585       .  S
C948        C949   1.337       .  D
C948       H2057   1.079       .  S
C949        C974   1.424       .  S
H953       C2052   1.079       .  S
O954       C2074   1.264       .  A
O954      Zn2064   1.968       .  S
C955       C1003   1.438       .  S
C955        O971   1.264       .  A
C955        O968   1.276       .  A
O956        C969   1.276       .  A
O956      Cd2067   2.044       .  S
O957        C975   1.275       .  A
O957       Cd966   2.022       .  S
O958        C972   1.275       .  A
O958       Cd962   2.022       .  S
O959        C970   1.276       .  A
O959       Cd962   2.044       .  S
Zn960      O2058   1.968   1_455  S
Zn960      O1801   1.968   1_456  S
Zn960       O965   1.717       .  S
O961        C972   1.262       .  A
O961       Cd966   1.978       .  S
Cd962       O964   1.978       .  S
Cd962       O965   1.905       .  S
Cd963      O2060   2.044   1_455  S
Cd963       O967   2.021       .  S
Cd963       O976   1.978       .  S
Cd963       O965   1.905       .  S
O964        C974   1.262       .  A
O965       Cd966   1.905       .  S
O967        C974   1.275       .  A
C970       C1955   1.438   1_455  S
C970       O2058   1.264   1_455  A
O973      Zn1788   1.968       .  S
C975        O976   1.262       .  A
C977        C981   1.623       .  S
C978        C979   1.337       .  D
C979        C980   1.519       .  S
C979       C1098   1.438       .  S
C980        H986   1.095       .  S
C980        C984   1.527       .  S
C980        C982   1.533       .  S
C981        H987   1.076       .  S
C983        C984   1.337       .  D
C983        H988   1.079       .  S
C984       C1031   1.424       .  S
C989        C993   1.623       .  S
C989       C1042   1.603       .  S
C990        C991   1.337       .  D
C991        C992   1.519       .  S
C992        H998   1.095       .  S
C992        C996   1.527       .  S
C992        C994   1.533       .  S
C993        H999   1.076       .  S
C995        C996   1.337       .  D
C995       H1000   1.079       .  S
C996       C1033   1.424       .  S
C1001      C2106   1.515       .  S
C1001      C2111   1.526       .  S
C1001      C1005   1.623       .  S
C1002      C2105   1.515   1_455  S
C1002      C1003   1.337       .  D
C1002      H2113   1.090       .  S
C1003      C1004   1.519       .  S
C1004      H1010   1.095       .  S
C1004      C1008   1.527       .  S
C1004      C1006   1.533       .  S
C1005      C2110   1.430       .  D
C1005      H1011   1.076       .  S
C1006      C2109   1.430   1_455  D
C1007      C2105   1.526   1_455  S
C1007      C1008   1.337       .  D
C1007      H1012   1.079       .  S
C1008      C1034   1.424       .  S
H1009      C2106   1.090       .  S
O1013      C1029   1.264       .  A
O1013     Zn1019   1.968       .  S
C1014      C1060   1.438       .  S
C1014      O1030   1.264       .  A
C1014      O1027   1.276       .  A
O1015      C1028   1.276       .  A
O1015     Cd1022   2.044       .  S
O1016      C1034   1.275       .  A
O1016     Cd1025   2.022       .  S
O1017      C1031   1.275       .  A
O1017     Cd1021   2.022       .  S
O1018      C1029   1.276       .  A
O1018     Cd1021   2.044       .  S
Zn1019     O1030   1.968       .  S
Zn1019     O1032   1.968       .  S
Zn1019     O1024   1.717       .  S
O1020      C1031   1.262       .  A
O1020     Cd1025   1.978       .  S
Cd1021     O1023   1.978       .  S
Cd1021     O1024   1.905       .  S
Cd1022     O1026   2.022       .  S
Cd1022     O1035   1.978       .  S
Cd1022     O1024   1.905       .  S
O1023      C1033   1.262       .  A
O1024     Cd1025   1.905       .  S
Cd1025     O1027   2.044       .  S
O1026      C1033   1.275       .  A
C1028      O1032   1.264       .  A
C1034      O1035   1.262       .  A
C1036      H1037   1.042       .  S
C1036      C1042   1.603       .  S
C1036      C1041   1.603       .  S
C1036      C1040   1.603       .  S
C1038      H1039   1.075       .  S
C1038      C1044   1.627       .  S
C1038      C1043   1.627       .  S
C1038      C1045   1.627       .  S
C1040      C1058   1.603       .  S
C1040      C1043   1.392       .  D
C1041      C1044   1.392       .  D
C1042      C1045   1.392       .  D
C1046      C1599   1.515   1_465  S
C1046      C2156   1.526   1_455  S
C1046      C1050   1.623       .  S
C1047      C1598   1.515       .  S
C1047      H2158   1.090       .  S
C1048      C1049   1.519       .  S
C1049      H1055   1.095       .  S
C1049      C1053   1.527       .  S
C1049      C1051   1.533       .  S
C1050      C2155   1.430   1_455  D
C1050      H1056   1.076       .  S
C1051      C2154   1.430       .  D
C1052      C2150   1.526       .  S
C1052      C1053   1.337       .  D
C1053      C1100   1.424       .  S
H1054      C2151   1.090   1_455  S
C1058      C1059   1.515       .  S
C1058      C1064   1.526       .  S
C1058      C1062   1.623       .  S
C1059      C1060   1.337       .  D
C1059      H1066   1.090       .  S
C1060      C1061   1.519       .  S
C1061      H1067   1.095       .  S
C1061      C1065   1.527       .  S
C1061      C1063   1.533       .  S
C1062      C1063   1.430       .  D
C1062      H1068   1.076       .  S
C1064      C1065   1.337       .  D
C1064      H1069   1.079       .  S
C1065      C1102   1.424       .  S
C1070      C1076   1.526       .  S
C1070      C1074   1.623       .  S
C1071      H1078   1.090       .  S
C1072      C1073   1.519       .  S
C1073      H1079   1.095       .  S
C1073      C1077   1.527       .  S
C1073      C1075   1.533       .  S
C1074      C1075   1.430       .  D
C1074      H1080   1.076       .  S
C1076      C1077   1.337       .  D
C1077      C1103   1.424       .  S
O1082      C1098   1.264       .  A
C1083      O1096   1.276       .  A
O1084      C1097   1.276       .  A
O1084     Cd1091   2.044       .  S
O1085      C1103   1.275       .  A
O1085     Cd1094   2.022       .  S
O1086      C1100   1.275       .  A
O1086     Cd1090   2.022       .  S
O1087      C1098   1.276       .  A
Zn1088     O1093   1.717       .  S
O1089      C1100   1.262       .  A
O1089     Cd1094   1.978       .  S
Cd1090     O1092   1.978       .  S
Cd1090     O1093   1.905       .  S
Cd1091     O1095   2.021       .  S
Cd1091     O1104   1.978       .  S
Cd1091     O1093   1.905       .  S
O1092      C1102   1.262       .  A
O1093     Cd1094   1.905       .  S
O1095      C1102   1.275       .  A
C1103      O1104   1.262       .  A
C1105      H1106   1.075       .  S
C1105      C1111   1.627       .  S
C1105      C1110   1.627       .  S
C1105      C1109   1.627       .  S
C1107      H1108   1.042       .  S
C1107      C1113   1.603       .  S
C1107      C1112   1.603       .  S
C1107      C1114   1.603       .  S
C1109      C1112   1.392       .  D
C1109      C1270   1.585       .  S
C1110      C1113   1.392       .  D
C1110      C1282   1.585       .  S
C1111      C1114   1.392       .  D
C1111      C1258   1.585       .  S
C1112      C1874   1.603   1_545  S
C1114      C1470   1.603   1_554  S
C1115      H1116   1.075       .  S
C1115      C1121   1.627       .  S
C1115      C1120   1.627       .  S
C1115      C1119   1.627       .  S
C1117      H1118   1.042       .  S
C1117      C1123   1.603       .  S
C1117      C1122   1.603       .  S
C1117      C1124   1.603       .  S
C1119      C1122   1.392       .  D
C1119      C1351   1.585       .  S
C1120      C1123   1.392       .  D
C1120      C1327   1.585       .  S
C1121      C1124   1.392       .  D
C1121      C1339   1.585       .  S
C1122      C1277   1.603       .  S
C1124      C1137   1.603       .  S
C1125      C1407   1.526   1_554  S
C1125      C1129   1.623       .  S
C1126      H1409   1.090       .  S
C1127      C1128   1.519       .  S
C1128      H1134   1.095       .  S
C1128      C1132   1.527       .  S
C1128      C1130   1.533       .  S
C1129      C1406   1.430   1_554  D
C1129      H1135   1.076       .  S
C1130      C1405   1.430       .  D
C1130      C1189   1.585       .  S
C1131      C1401   1.526       .  S
C1131      C1132   1.337       .  D
C1132      C1181   1.424       .  S
H1133      C1402   1.090   1_554  S
C1137      C1138   1.515       .  S
C1137      C1143   1.526       .  S
C1137      C1141   1.623       .  S
C1138      C1139   1.337       .  D
C1138      H1145   1.090       .  S
C1139      C1140   1.519       .  S
C1139      C1305   1.438       .  S
C1140      H1146   1.095       .  S
C1140      C1144   1.527       .  S
C1140      C1142   1.533       .  S
C1141      C1142   1.430       .  D
C1141      H1147   1.076       .  S
C1142      C1190   1.585       .  S
C1143      C1144   1.337       .  D
C1143      H1148   1.079       .  S
C1144      C1182   1.424       .  S
C1149      C1702   1.515   1_545  S
C1149      C1155   1.526       .  S
C1149      C1153   1.623       .  S
C1149      C1869   1.603   1_545  S
C1150      C1701   1.515       .  S
C1150      C1703   1.337       .  D
C1150      H1157   1.090       .  S
C1151      C1152   1.519       .  S
C1151      C1702   1.337   1_545  D
C1151      C1911   1.438   1_545  S
C1152      H1158   1.095       .  S
C1152      C1156   1.527       .  S
C1152      C1154   1.533       .  S
C1153      C1154   1.430       .  D
C1153      H1159   1.076       .  S
C1154      C1188   1.585       .  S
C1155      C1156   1.337       .  D
C1155      H1712   1.079       .  S
C1156      C1179   1.424       .  S
H1160      C1707   1.079       .  S
C1162      C1876   1.438   1_545  S
C1162      O1730   1.264   1_545  A
C1162      O1175   1.276       .  A
O1163      C1176   1.276       .  A
O1164      C1182   1.275       .  A
O1164     Cd1173   2.022       .  S
O1165      C1179   1.275       .  A
O1165     Cd1169   2.022       .  S
O1166      C1177   1.276       .  A
O1166     Cd1721   2.044       .  S
Zn1167     O1730   1.968   1_545  S
Zn1167     O1172   1.717       .  S
O1168      C1179   1.262       .  A
O1168     Cd1173   1.978       .  S
Cd1169     O1718   2.044   1_545  S
Cd1169     O1171   1.978       .  S
Cd1169     O1172   1.905       .  S
Cd1170     O1174   2.022       .  S
Cd1170     O1183   1.978       .  S
Cd1170     O1172   1.905       .  S
O1171      C1181   1.262       .  A
O1172     Cd1173   1.905       .  S
Cd1173     O1175   2.044       .  S
O1174      C1181   1.275       .  A
C1176      C1267   1.438       .  S
C1176      O1180   1.264       .  A
O1178      C1714   1.264       .  A
O1178     Zn1719   1.968       .  S
C1182      O1183   1.262       .  A
C1184      H1185   1.075       .  S
C1184      C1190   1.627       .  S
C1184      C1189   1.627       .  S
C1184      C1188   1.627       .  S
C1186      H1187   1.042       .  S
C1186      C1192   1.603       .  S
C1186      C1191   1.603       .  S
C1186      C1193   1.603       .  S
C1188      C1191   1.392       .  D
C1189      C1192   1.392       .  D
C1190      C1193   1.392       .  D
C1191      C1253   1.603       .  S
C1192      C1622   1.603       .  S
C1193      C1206   1.603       .  S
C1194      C1390   1.603       .  S
C1194      C2023   1.515   1_545  S
C1194      C1752   1.526   1_545  S
C1194      C1198   1.623       .  S
C1195      C2022   1.515   1_554  S
C1195      C1472   1.337   1_554  D
C1195      H1754   1.090       .  S
C1196      C1197   1.519       .  S
C1196      C1471   1.337       .  D
C1196      C1649   1.438       .  S
C1197      H1203   1.095       .  S
C1197      C1201   1.527       .  S
C1197      C1199   1.533       .  S
C1198      C1751   1.430   1_545  D
C1198      H1204   1.076       .  S
C1199      C1750   1.430       .  D
C1199      C1320   1.585       .  S
C1200      C1746   1.526       .  S
C1200      C1201   1.337       .  D
C1200      H1481   1.079       .  S
C1201      C1251   1.424       .  S
H1202      C1747   1.090   1_545  S
H1205      C1476   1.079       .  S
C1206      C1207   1.515       .  S
C1206      C1212   1.526       .  S
C1206      C1210   1.623       .  S
C1207      C1208   1.337       .  D
C1207      H1214   1.090       .  S
C1208      C1209   1.519       .  S
C1208      C1304   1.438       .  S
C1209      H1215   1.095       .  S
C1209      C1213   1.527       .  S
C1209      C1211   1.533       .  S
C1210      C1211   1.430       .  D
C1210      H1216   1.076       .  S
C1211      C1319   1.585       .  S
C1212      C1213   1.337       .  D
C1212      H1217   1.079       .  S
C1213      C1248   1.424       .  S
C1218      C1224   1.526       .  S
C1218      C1222   1.623       .  S
C1219      H1226   1.090       .  S
C1220      C1221   1.519       .  S
C1221      H1227   1.095       .  S
C1221      C1225   1.527       .  S
C1221      C1223   1.533       .  S
C1222      C1223   1.430       .  D
C1222      H1228   1.076       .  S
C1223      C1321   1.585       .  S
C1224      C1225   1.337       .  D
C1225      C1250   1.424       .  S
C1231      C1279   1.438       .  S
C1231      O1247   1.264       .  A
C1231      O1244   1.276       .  A
O1232      C1245   1.276       .  A
O1233      C1251   1.275       .  A
O1233     Cd1242   2.022       .  S
O1234      C1248   1.275       .  A
O1234     Cd1238   2.022       .  S
O1235      C1246   1.276       .  A
O1235     Cd1238   2.044       .  S
Zn1236     O1523   1.968       .  S
Zn1236     O1241   1.717       .  S
O1237      C1248   1.262       .  A
O1237     Cd1242   1.978       .  S
Cd1238     O1240   1.978       .  S
Cd1238     O1241   1.905       .  S
Cd1239     O1243   2.021       .  S
Cd1239     O1252   1.978       .  S
Cd1239     O1241   1.905       .  S
O1240      C1250   1.262       .  A
O1241     Cd1242   1.905       .  S
Cd1242     O1520   2.044       .  S
O1243      C1250   1.275       .  A
O1244     Cd1518   2.044   1_554  S
C1245      C1624   1.438       .  S
C1245      O1525   1.264       .  A
O1247     Zn1512   1.968   1_554  S
O1249      C1521   1.264   1_554  A
C1251      O1252   1.262       .  A
C1253      C1530   1.515       .  S
C1253      C1535   1.526       .  S
C1253      C1257   1.623       .  S
C1254      C1529   1.515   1_554  S
C1254      C1255   1.337       .  D
C1254      H1537   1.090       .  S
C1255      C1256   1.519       .  S
C1255      C1374   1.438       .  S
C1256      H1262   1.095       .  S
C1256      C1260   1.527       .  S
C1256      C1258   1.533       .  S
C1257      C1534   1.430       .  D
C1257      H1263   1.076       .  S
C1258      C1533   1.430   1_554  D
C1259      C1529   1.526   1_554  S
C1259      C1260   1.337       .  D
C1259      H1264   1.079       .  S
C1260      C1307   1.424       .  S
H1261      C1530   1.090       .  S
C1265      C1818   1.515       .  S
C1265      C1823   1.526       .  S
C1265      C1269   1.623       .  S
C1265      C1318   1.603       .  S
C1266      C1817   1.515   1_545  S
C1266      C1267   1.337       .  D
C1266      H1825   1.090       .  S
C1267      C1268   1.519       .  S
C1268      H1274   1.095       .  S
C1268      C1272   1.527       .  S
C1268      C1270   1.533       .  S
C1269      C1822   1.430       .  D
C1269      H1275   1.076       .  S
C1270      C1821   1.430   1_545  D
C1271      C1817   1.526   1_545  S
C1271      C1272   1.337       .  D
C1271      H1276   1.079       .  S
C1272      C1309   1.424       .  S
H1273      C1818   1.090       .  S
C1277      C1281   1.623       .  S
C1278      C1279   1.337       .  D
C1279      C1280   1.519       .  S
C1280      H1286   1.095       .  S
C1280      C1284   1.527       .  S
C1280      C1282   1.533       .  S
C1281      H1287   1.076       .  S
C1283      C1284   1.337       .  D
C1283      H1288   1.079       .  S
C1284      C1310   1.424       .  S
O1289      C1305   1.264       .  A
O1289     Zn1295   1.968       .  S
C1290      C1336   1.438       .  S
C1290      O1306   1.264       .  A
C1290      O1303   1.276       .  A
O1291      C1304   1.276       .  A
O1291     Cd1298   2.044       .  S
O1292      C1310   1.275       .  A
O1292     Cd1301   2.022       .  S
O1293      C1307   1.275       .  A
O1293     Cd1297   2.022       .  S
O1294      C1305   1.276       .  A
O1294     Cd1297   2.044       .  S
Zn1295     O1306   1.968       .  S
Zn1295     O1308   1.968       .  S
Zn1295     O1300   1.717       .  S
O1296      C1307   1.262       .  A
O1296     Cd1301   1.978       .  S
Cd1297     O1299   1.978       .  S
Cd1297     O1300   1.905       .  S
Cd1298     O1302   2.022       .  S
Cd1298     O1311   1.978       .  S
Cd1298     O1300   1.905       .  S
O1299      C1309   1.262       .  A
O1300     Cd1301   1.905       .  S
Cd1301     O1303   2.044       .  S
O1302      C1309   1.275       .  A
C1304      O1308   1.264       .  A
C1310      O1311   1.262       .  A
C1312      H1313   1.042       .  S
C1312      C1318   1.603       .  S
C1312      C1317   1.603       .  S
C1312      C1316   1.603       .  S
C1314      H1315   1.075       .  S
C1314      C1320   1.627       .  S
C1314      C1319   1.627       .  S
C1314      C1321   1.627       .  S
C1316      C1334   1.603       .  S
C1316      C1319   1.392       .  D
C1317      C1701   1.603       .  S
C1317      C1320   1.392       .  D
C1318      C1321   1.392       .  D
C1322      C1664   1.603       .  S
C1322      C1326   1.623       .  S
C1323      C1876   1.337   1_545  D
C1324      C1325   1.519       .  S
C1324      C1875   1.337       .  D
C1324      C1714   1.438       .  S
C1325      H1331   1.095       .  S
C1325      C1329   1.527       .  S
C1325      C1327   1.533       .  S
C1326      H1332   1.076       .  S
C1328      C1329   1.337       .  D
C1328      H1885   1.079       .  S
C1329      C1376   1.424       .  S
H1333      C1880   1.079       .  S
C1334      C1335   1.515       .  S
C1334      C1340   1.526       .  S
C1334      C1338   1.623       .  S
C1335      C1336   1.337       .  D
C1335      H1342   1.090       .  S
C1336      C1337   1.519       .  S
C1337      H1343   1.095       .  S
C1337      C1341   1.527       .  S
C1337      C1339   1.533       .  S
C1338      C1339   1.430       .  D
C1338      H1344   1.076       .  S
C1340      C1341   1.337       .  D
C1340      H1345   1.079       .  S
C1341      C1378   1.424       .  S
C1346      C1468   1.603   1_554  S
C1346      C1623   1.515   1_554  S
C1346      C1352   1.526       .  S
C1346      C1350   1.623       .  S
C1347      C1622   1.515       .  S
C1347      C1624   1.337       .  D
C1347      H1354   1.090       .  S
C1348      C1349   1.519       .  S
C1348      C1623   1.337   1_554  D
C1348      C1521   1.438   1_554  S
C1349      H1355   1.095       .  S
C1349      C1353   1.527       .  S
C1349      C1351   1.533       .  S
C1350      C1351   1.430       .  D
C1350      H1356   1.076       .  S
C1352      C1353   1.337       .  D
C1352      H1633   1.079       .  S
C1353      C1379   1.424       .  S
H1357      C1628   1.079       .  S
O1358      C1374   1.264       .  A
O1358     Zn1916   1.968   1_545  S
C1359      C1703   1.438       .  S
C1359      O1927   1.264       .  A
C1359      O1372   1.276       .  A
O1360      C1373   1.276       .  A
O1360     Cd1367   2.044       .  S
O1361      C1379   1.275       .  A
O1361     Cd1370   2.022       .  S
O1362      C1376   1.275       .  A
O1362     Cd1366   2.022       .  S
O1363      C1374   1.276       .  A
O1363     Cd1918   2.044   1_545  S
Zn1364     O1910   1.968       .  S
Zn1364     O2203   1.968   1_554  S
Zn1364     O1653   1.968   1_554  S
Zn1364     O1369   1.717       .  S
O1365      C1376   1.262       .  A
O1365     Cd1370   1.978       .  S
Cd1366     O1915   2.044       .  S
Cd1366     O1368   1.978       .  S
Cd1366     O1369   1.905       .  S
Cd1367     O1371   2.021       .  S
Cd1367     O1380   1.978       .  S
Cd1367     O1369   1.905       .  S
O1368      C1378   1.262       .  A
O1369     Cd1370   1.905       .  S
Cd1370     O1648   2.044   1_554  S
O1371      C1378   1.275       .  A
O1372     Cd1646   2.044       .  S
C1373      C1472   1.438   1_554  S
C1373      O1653   1.264   1_554  A
O1375      C1911   1.264   1_545  A
O1375     Zn2192   1.968   1_545  S
O1377      C1649   1.264       .  A
O1377     Zn1640   1.968       .  S
C1379      O1380   1.262       .  A
C1381      H1382   1.075       .  S
C1381      C1387   1.627       .  S
C1381      C1386   1.627       .  S
C1381      C1385   1.627       .  S
C1383      H1384   1.042       .  S
C1383      C1389   1.603       .  S
C1383      C1388   1.603       .  S
C1383      C1390   1.603       .  S
C1385      C1388   1.392       .  D
C1385      C1546   1.585       .  S
C1386      C1389   1.392       .  D
C1386      C1558   1.585       .  S
C1387      C1390   1.392       .  D
C1387      C1534   1.585       .  S
C1388      C2150   1.603   1_545  S
C1391      H1392   1.075       .  S
C1391      C1397   1.627       .  S
C1391      C1396   1.627       .  S
C1391      C1395   1.627       .  S
C1393      H1394   1.042       .  S
C1393      C1399   1.603       .  S
C1393      C1398   1.603       .  S
C1393      C1400   1.603       .  S
C1395      C1398   1.392       .  D
C1395      C1627   1.585       .  S
C1396      C1399   1.392       .  D
C1396      C1603   1.585       .  S
C1397      C1400   1.392       .  D
C1397      C1615   1.585       .  S
C1398      C1553   1.603       .  S
C1400      C1413   1.603       .  S
C1401      C1405   1.623       .  S
C1403      C1404   1.519       .  S
C1404      H1410   1.095       .  S
C1404      C1408   1.527       .  S
C1404      C1406   1.533       .  S
C1405      H1411   1.076       .  S
C1406      C1465   1.585       .  S
C1407      C1408   1.337       .  D
C1408      C1457   1.424       .  S
C1413      C1414   1.515       .  S
C1413      C1419   1.526       .  S
C1413      C1417   1.623       .  S
C1414      C1415   1.337       .  D
C1414      H1421   1.090       .  S
C1415      C1416   1.519       .  S
C1415      C1581   1.438       .  S
C1416      H1422   1.095       .  S
C1416      C1420   1.527       .  S
C1416      C1418   1.533       .  S
C1417      C1418   1.430       .  D
C1417      H1423   1.076       .  S
C1418      C1466   1.585       .  S
C1419      C1420   1.337       .  D
C1419      H1424   1.079       .  S
C1420      C1458   1.424       .  S
C1425      C1978   1.515   1_545  S
C1425      C1431   1.526       .  S
C1425      C1429   1.623       .  S
C1425      C2145   1.603   1_545  S
C1426      C1977   1.515       .  S
C1426      C1979   1.337       .  D
C1426      H1433   1.090       .  S
C1427      C1428   1.519       .  S
C1427      C1978   1.337   1_545  D
C1427      C2187   1.438   1_545  S
C1428      H1434   1.095       .  S
C1428      C1432   1.527       .  S
C1428      C1430   1.533       .  S
C1429      C1430   1.430       .  D
C1429      H1435   1.076       .  S
C1430      C1464   1.585       .  S
C1431      C1432   1.337       .  D
C1431      H1988   1.079       .  S
C1432      C1455   1.424       .  S
H1436      C1983   1.079       .  S
C1438      C2152   1.438   1_545  S
C1438      O2006   1.264   1_545  A
C1438      O1451   1.276       .  A
O1439      C1452   1.276       .  A
O1440      C1458   1.275       .  A
O1440     Cd1449   2.022       .  S
O1441      C1455   1.275       .  A
O1441     Cd1445   2.022       .  S
O1442      C1453   1.276       .  A
O1442     Cd1997   2.044       .  S
Zn1443     O2006   1.968   1_545  S
Zn1443     O1448   1.717       .  S
O1444      C1455   1.262       .  A
O1444     Cd1449   1.978       .  S
Cd1445     O1994   2.044   1_545  S
Cd1445     O1447   1.978       .  S
Cd1445     O1448   1.905       .  S
Cd1446     O1450   2.022       .  S
Cd1446     O1459   1.978       .  S
Cd1446     O1448   1.905       .  S
O1447      C1457   1.262       .  A
O1448     Cd1449   1.905       .  S
Cd1449     O1451   2.044       .  S
O1450      C1457   1.275       .  A
C1452      C1543   1.438       .  S
C1452      O1456   1.264       .  A
O1454      C1990   1.264       .  A
O1454     Zn1995   1.968       .  S
C1458      O1459   1.262       .  A
C1460      H1461   1.075       .  S
C1460      C1466   1.627       .  S
C1460      C1465   1.627       .  S
C1460      C1464   1.627       .  S
C1462      H1463   1.042       .  S
C1462      C1468   1.603       .  S
C1462      C1467   1.603       .  S
C1462      C1469   1.603       .  S
C1464      C1467   1.392       .  D
C1465      C1468   1.392       .  D
C1466      C1469   1.392       .  D
C1467      C1529   1.603       .  S
C1469      C1482   1.603       .  S
C1470      C1747   1.515   1_546  S
C1470      C2028   1.526   1_545  S
C1470      C1474   1.623       .  S
C1471      C1746   1.515       .  S
C1471      H2030   1.090       .  S
C1472      C1473   1.519       .  S
C1473      H1479   1.095       .  S
C1473      C1477   1.527       .  S
C1473      C1475   1.533       .  S
C1474      C2027   1.430   1_545  D
C1474      H1480   1.076       .  S
C1475      C2026   1.430       .  D
C1475      C1596   1.585       .  S
C1476      C2022   1.526       .  S
C1476      C1477   1.337       .  D
C1477      C1527   1.424       .  S
H1478      C2023   1.090   1_545  S
C1482      C1483   1.515       .  S
C1482      C1488   1.526       .  S
C1482      C1486   1.623       .  S
C1483      C1484   1.337       .  D
C1483      H1490   1.090       .  S
C1484      C1485   1.519       .  S
C1484      C1580   1.438       .  S
C1485      H1491   1.095       .  S
C1485      C1489   1.527       .  S
C1485      C1487   1.533       .  S
C1486      C1487   1.430       .  D
C1486      H1492   1.076       .  S
C1487      C1595   1.585       .  S
C1488      C1489   1.337       .  D
C1488      H1493   1.079       .  S
C1489      C1524   1.424       .  S
C1494      C1500   1.526       .  S
C1494      C1498   1.623       .  S
C1495      H1502   1.090       .  S
C1496      C1497   1.519       .  S
C1497      H1503   1.095       .  S
C1497      C1501   1.527       .  S
C1497      C1499   1.533       .  S
C1498      C1499   1.430       .  D
C1498      H1504   1.076       .  S
C1499      C1597   1.585       .  S
C1500      C1501   1.337       .  D
C1501      C1526   1.424       .  S
C1507      C1555   1.438       .  S
C1507      O1523   1.264       .  A
C1507      O1520   1.276       .  A
O1508      C1521   1.276       .  A
O1509      C1527   1.275       .  A
O1509     Cd1518   2.022       .  S
O1510      C1524   1.275       .  A
O1510     Cd1514   2.022       .  S
O1511      C1522   1.276       .  A
O1511     Cd1514   2.044       .  S
Zn1512     O1517   1.717       .  S
O1513      C1524   1.262       .  A
O1513     Cd1518   1.978       .  S
Cd1514     O1516   1.978       .  S
Cd1514     O1517   1.905       .  S
Cd1515     O1519   2.021       .  S
Cd1515     O1528   1.978       .  S
Cd1515     O1517   1.905       .  S
O1516      C1526   1.262       .  A
O1517     Cd1518   1.905       .  S
O1519      C1526   1.275       .  A
C1527      O1528   1.262       .  A
C1529      C1533   1.623       .  S
C1530      C1531   1.337       .  D
C1531      C1532   1.519       .  S
C1531      C1650   1.438       .  S
C1532      H1538   1.095       .  S
C1532      C1536   1.527       .  S
C1532      C1534   1.533       .  S
C1533      H1539   1.076       .  S
C1535      C1536   1.337       .  D
C1535      H1540   1.079       .  S
C1536      C1583   1.424       .  S
C1541      C2094   1.515       .  S
C1541      C2099   1.526       .  S
C1541      C1545   1.623       .  S
C1541      C1594   1.603       .  S
C1542      C2093   1.515   1_545  S
C1542      C1543   1.337       .  D
C1542      H2101   1.090       .  S
C1543      C1544   1.519       .  S
C1544      H1550   1.095       .  S
C1544      C1548   1.527       .  S
C1544      C1546   1.533       .  S
C1545      C2098   1.430       .  D
C1545      H1551   1.076       .  S
C1546      C2097   1.430   1_545  D
C1547      C2093   1.526   1_545  S
C1547      C1548   1.337       .  D
C1547      H1552   1.079       .  S
C1548      C1585   1.424       .  S
H1549      C2094   1.090       .  S
C1553      C1557   1.623       .  S
C1554      C1555   1.337       .  D
C1555      C1556   1.519       .  S
C1556      H1562   1.095       .  S
C1556      C1560   1.527       .  S
C1556      C1558   1.533       .  S
C1557      H1563   1.076       .  S
C1559      C1560   1.337       .  D
C1559      H1564   1.079       .  S
C1560      C1586   1.424       .  S
O1565      C1581   1.264       .  A
O1565     Zn1571   1.968       .  S
C1566      C1612   1.438       .  S
C1566      O1582   1.264       .  A
C1566      O1579   1.276       .  A
O1567      C1580   1.276       .  A
O1567     Cd1574   2.044       .  S
O1568      C1586   1.275       .  A
O1568     Cd1577   2.022       .  S
O1569      C1583   1.275       .  A
O1569     Cd1573   2.022       .  S
O1570      C1581   1.276       .  A
O1570     Cd1573   2.044       .  S
Zn1571     O1582   1.968       .  S
Zn1571     O1584   1.968       .  S
Zn1571     O1576   1.717       .  S
O1572      C1583   1.262       .  A
O1572     Cd1577   1.978       .  S
Cd1573     O1575   1.978       .  S
Cd1573     O1576   1.905       .  S
Cd1574     O1578   2.022       .  S
Cd1574     O1587   1.978       .  S
Cd1574     O1576   1.905       .  S
O1575      C1585   1.262       .  A
O1576     Cd1577   1.905       .  S
Cd1577     O1579   2.044       .  S
O1578      C1585   1.275       .  A
C1580      O1584   1.264       .  A
C1586      O1587   1.262       .  A
C1588      H1589   1.042       .  S
C1588      C1594   1.603       .  S
C1588      C1593   1.603       .  S
C1588      C1592   1.603       .  S
C1590      H1591   1.075       .  S
C1590      C1596   1.627       .  S
C1590      C1595   1.627       .  S
C1590      C1597   1.627       .  S
C1592      C1610   1.603       .  S
C1592      C1595   1.392       .  D
C1593      C1977   1.603       .  S
C1593      C1596   1.392       .  D
C1594      C1597   1.392       .  D
C1598      C1940   1.603       .  S
C1598      C1602   1.623       .  S
C1599      C2152   1.337   1_545  D
C1600      C1601   1.519       .  S
C1600      C2151   1.337       .  D
C1600      C1990   1.438       .  S
C1601      H1607   1.095       .  S
C1601      C1605   1.527       .  S
C1601      C1603   1.533       .  S
C1602      H1608   1.076       .  S
C1604      C1605   1.337       .  D
C1604      H2161   1.079       .  S
C1605      C1652   1.424       .  S
H1609      C2156   1.079       .  S
C1610      C1611   1.515       .  S
C1610      C1616   1.526       .  S
C1610      C1614   1.623       .  S
C1611      C1612   1.337       .  D
C1611      H1618   1.090       .  S
C1612      C1613   1.519       .  S
C1613      H1619   1.095       .  S
C1613      C1617   1.527       .  S
C1613      C1615   1.533       .  S
C1614      C1615   1.430       .  D
C1614      H1620   1.076       .  S
C1616      C1617   1.337       .  D
C1616      H1621   1.079       .  S
C1617      C1654   1.424       .  S
C1622      C1628   1.526       .  S
C1622      C1626   1.623       .  S
C1623      H1630   1.090       .  S
C1624      C1625   1.519       .  S
C1625      H1631   1.095       .  S
C1625      C1629   1.527       .  S
C1625      C1627   1.533       .  S
C1626      C1627   1.430       .  D
C1626      H1632   1.076       .  S
C1628      C1629   1.337       .  D
C1629      C1655   1.424       .  S
O1634      C1650   1.264       .  A
O1634     Zn2192   1.968   1_545  S
C1635      C1979   1.438       .  S
C1635      O2203   1.264       .  A
C1635      O1648   1.276       .  A
O1636      C1649   1.276       .  A
O1636     Cd1643   2.044       .  S
O1637      C1655   1.275       .  A
O1637     Cd1646   2.022       .  S
O1638      C1652   1.275       .  A
O1638     Cd1642   2.022       .  S
O1639      C1650   1.276       .  A
O1639     Cd2194   2.044   1_545  S
Zn1640     O2186   1.968       .  S
Zn1640     O1927   1.968       .  S
Zn1640     O1645   1.717       .  S
O1641      C1652   1.262       .  A
O1641     Cd1646   1.978       .  S
Cd1642     O2191   2.044       .  S
Cd1642     O1644   1.978       .  S
Cd1642     O1645   1.905       .  S
Cd1643     O1647   2.021       .  S
Cd1643     O1656   1.978       .  S
Cd1643     O1645   1.905       .  S
O1644      C1654   1.262       .  A
O1645     Cd1646   1.905       .  S
O1647      C1654   1.275       .  A
O1651      C2187   1.264   1_545  A
O1651     Zn1916   1.968   1_546  S
C1655      O1656   1.262       .  A
C1657      H1658   1.075       .  S
C1657      C1663   1.627       .  S
C1657      C1662   1.627       .  S
C1657      C1661   1.627       .  S
C1659      H1660   1.042       .  S
C1659      C1665   1.603       .  S
C1659      C1664   1.603       .  S
C1659      C1666   1.603       .  S
C1661      C1664   1.392       .  D
C1661      C1822   1.585       .  S
C1662      C1665   1.392       .  D
C1662      C1834   1.585       .  S
C1663      C1666   1.392       .  D
C1663      C1810   1.585       .  S
C1666      C2022   1.603   1_554  S
C1667      H1668   1.075       .  S
C1667      C1673   1.627       .  S
C1667      C1672   1.627       .  S
C1667      C1671   1.627       .  S
C1669      H1670   1.042       .  S
C1669      C1675   1.603       .  S
C1669      C1674   1.603       .  S
C1669      C1676   1.603       .  S
C1671      C1674   1.392       .  D
C1671      C1903   1.585       .  S
C1672      C1675   1.392       .  D
C1672      C1879   1.585       .  S
C1673      C1676   1.392       .  D
C1673      C1891   1.585       .  S
C1674      C1829   1.603       .  S
C1676      C1689   1.603       .  S
C1677      C1959   1.526   1_554  S
C1677      C1681   1.623       .  S
C1678      H1961   1.090       .  S
C1679      C1680   1.519       .  S
C1680      H1686   1.095       .  S
C1680      C1684   1.527       .  S
C1680      C1682   1.533       .  S
C1681      C1958   1.430   1_554  D
C1681      H1687   1.076       .  S
C1682      C1957   1.430       .  D
C1682      C1741   1.585       .  S
C1683      C1953   1.526       .  S
C1683      C1684   1.337       .  D
C1684      C1733   1.424       .  S
H1685      C1954   1.090   1_554  S
C1689      C1690   1.515       .  S
C1689      C1695   1.526       .  S
C1689      C1693   1.623       .  S
C1690      C1691   1.337       .  D
C1690      H1697   1.090       .  S
C1691      C1692   1.519       .  S
C1691      C1857   1.438       .  S
C1692      H1698   1.095       .  S
C1692      C1696   1.527       .  S
C1692      C1694   1.533       .  S
C1693      C1694   1.430       .  D
C1693      H1699   1.076       .  S
C1694      C1742   1.585       .  S
C1695      C1696   1.337       .  D
C1695      H1700   1.079       .  S
C1696      C1734   1.424       .  S
C1701      C1707   1.526       .  S
C1701      C1705   1.623       .  S
C1702      H1709   1.090       .  S
C1703      C1704   1.519       .  S
C1704      H1710   1.095       .  S
C1704      C1708   1.527       .  S
C1704      C1706   1.533       .  S
C1705      C1706   1.430       .  D
C1705      H1711   1.076       .  S
C1706      C1740   1.585       .  S
C1707      C1708   1.337       .  D
C1708      C1731   1.424       .  S
C1714      O1727   1.276       .  A
O1715      C1728   1.276       .  A
O1716      C1734   1.275       .  A
O1716     Cd1725   2.022       .  S
O1717      C1731   1.275       .  A
O1717     Cd1721   2.022       .  S
O1718      C1729   1.276       .  A
Zn1719     O1724   1.717       .  S
O1720      C1731   1.262       .  A
O1720     Cd1725   1.978       .  S
Cd1721     O1723   1.978       .  S
Cd1721     O1724   1.905       .  S
Cd1722     O1726   2.022       .  S
Cd1722     O1735   1.978       .  S
Cd1722     O1724   1.905       .  S
O1723      C1733   1.262       .  A
O1724     Cd1725   1.905       .  S
Cd1725     O1727   2.044       .  S
O1726      C1733   1.275       .  A
C1728      C1819   1.438       .  S
C1728      O1732   1.264       .  A
C1734      O1735   1.262       .  A
C1736      H1737   1.075       .  S
C1736      C1742   1.627       .  S
C1736      C1741   1.627       .  S
C1736      C1740   1.627       .  S
C1738      H1739   1.042       .  S
C1738      C1744   1.603       .  S
C1738      C1743   1.603       .  S
C1738      C1745   1.603       .  S
C1740      C1743   1.392       .  D
C1741      C1744   1.392       .  D
C1742      C1745   1.392       .  D
C1743      C1805   1.603       .  S
C1744      C2174   1.603       .  S
C1745      C1758   1.603       .  S
C1746      C1942   1.603       .  S
C1746      C1750   1.623       .  S
C1747      C2024   1.337   1_554  D
C1748      C1749   1.519       .  S
C1748      C2023   1.337       .  D
C1748      C2201   1.438       .  S
C1749      H1755   1.095       .  S
C1749      C1753   1.527       .  S
C1749      C1751   1.533       .  S
C1750      H1756   1.076       .  S
C1751      C1872   1.585       .  S
C1752      C1753   1.337       .  D
C1752      H2033   1.079       .  S
C1753      C1803   1.424       .  S
H1757      C2028   1.079       .  S
C1758      C1759   1.515       .  S
C1758      C1764   1.526       .  S
C1758      C1762   1.623       .  S
C1759      C1760   1.337       .  D
C1759      H1766   1.090       .  S
C1760      C1761   1.519       .  S
C1760      C1856   1.438       .  S
C1761      H1767   1.095       .  S
C1761      C1765   1.527       .  S
C1761      C1763   1.533       .  S
C1762      C1763   1.430       .  D
C1762      H1768   1.076       .  S
C1763      C1871   1.585       .  S
C1764      C1765   1.337       .  D
C1764      H1769   1.079       .  S
C1765      C1800   1.424       .  S
C1770      C1776   1.526       .  S
C1770      C1774   1.623       .  S
C1771      H1778   1.090       .  S
C1772      C1773   1.519       .  S
C1773      H1779   1.095       .  S
C1773      C1777   1.527       .  S
C1773      C1775   1.533       .  S
C1774      C1775   1.430       .  D
C1774      H1780   1.076       .  S
C1775      C1873   1.585       .  S
C1776      C1777   1.337       .  D
C1777      C1802   1.424       .  S
C1783      C1831   1.438       .  S
C1783      O1799   1.264       .  A
C1783      O1796   1.276       .  A
O1784      C1797   1.276       .  A
O1785      C1803   1.275       .  A
O1785     Cd1794   2.022       .  S
O1786      C1800   1.275       .  A
O1786     Cd1790   2.022       .  S
O1787      C1798   1.276       .  A
O1787     Cd1790   2.044       .  S
Zn1788     O2075   1.968       .  S
Zn1788     O1793   1.717       .  S
O1789      C1800   1.262       .  A
O1789     Cd1794   1.978       .  S
Cd1790     O1792   1.978       .  S
Cd1790     O1793   1.905       .  S
Cd1791     O1795   2.021       .  S
Cd1791     O1804   1.978       .  S
Cd1791     O1793   1.905       .  S
O1792      C1802   1.262       .  A
O1793     Cd1794   1.905       .  S
Cd1794     O2072   2.044       .  S
O1795      C1802   1.275       .  A
O1796     Cd2070   2.044   1_554  S
C1797      C2176   1.438       .  S
C1797      O2077   1.264       .  A
O1799     Zn2064   1.968   1_554  S
O1801      C2073   1.264   1_554  A
C1803      O1804   1.262       .  A
C1805      C2082   1.515       .  S
C1805      C2087   1.526       .  S
C1805      C1809   1.623       .  S
C1806      C2081   1.515   1_554  S
C1806      C1807   1.337       .  D
C1806      H2089   1.090       .  S
C1807      C1808   1.519       .  S
C1807      C1926   1.438       .  S
C1808      H1814   1.095       .  S
C1808      C1812   1.527       .  S
C1808      C1810   1.533       .  S
C1809      C2086   1.430       .  D
C1809      H1815   1.076       .  S
C1810      C2085   1.430   1_554  D
C1811      C2081   1.526   1_554  S
C1811      C1812   1.337       .  D
C1811      H1816   1.079       .  S
C1812      C1859   1.424       .  S
H1813      C2082   1.090       .  S
C1817      C1821   1.623       .  S
C1817      C1870   1.603       .  S
C1818      C1819   1.337       .  D
C1819      C1820   1.519       .  S
C1820      H1826   1.095       .  S
C1820      C1824   1.527       .  S
C1820      C1822   1.533       .  S
C1821      H1827   1.076       .  S
C1823      C1824   1.337       .  D
C1823      H1828   1.079       .  S
C1824      C1861   1.424       .  S
C1829      C1833   1.623       .  S
C1830      C1831   1.337       .  D
C1831      C1832   1.519       .  S
C1832      H1838   1.095       .  S
C1832      C1836   1.527       .  S
C1832      C1834   1.533       .  S
C1833      H1839   1.076       .  S
C1835      C1836   1.337       .  D
C1835      H1840   1.079       .  S
C1836      C1862   1.424       .  S
O1841      C1857   1.264       .  A
O1841     Zn1847   1.968       .  S
C1842      C1888   1.438       .  S
C1842      O1858   1.264       .  A
C1842      O1855   1.276       .  A
O1843      C1856   1.276       .  A
O1843     Cd1850   2.044       .  S
O1844      C1862   1.275       .  A
O1844     Cd1853   2.022       .  S
O1845      C1859   1.275       .  A
O1845     Cd1849   2.022       .  S
O1846      C1857   1.276       .  A
O1846     Cd1849   2.044       .  S
Zn1847     O1858   1.968       .  S
Zn1847     O1860   1.968       .  S
Zn1847     O1852   1.717       .  S
O1848      C1859   1.262       .  A
O1848     Cd1853   1.978       .  S
Cd1849     O1851   1.978       .  S
Cd1849     O1852   1.905       .  S
Cd1850     O1854   2.022       .  S
Cd1850     O1863   1.978       .  S
Cd1850     O1852   1.905       .  S
O1851      C1861   1.262       .  A
O1852     Cd1853   1.905       .  S
Cd1853     O1855   2.044       .  S
O1854      C1861   1.275       .  A
C1856      O1860   1.264       .  A
C1862      O1863   1.262       .  A
C1864      H1865   1.042       .  S
C1864      C1870   1.603       .  S
C1864      C1869   1.603       .  S
C1864      C1868   1.603       .  S
C1866      H1867   1.075       .  S
C1866      C1872   1.627       .  S
C1866      C1871   1.627       .  S
C1866      C1873   1.627       .  S
C1868      C1886   1.603       .  S
C1868      C1871   1.392       .  D
C1869      C1872   1.392       .  D
C1870      C1873   1.392       .  D
C1874      C1878   1.623       .  S
C1876      C1877   1.519       .  S
C1877      H1883   1.095       .  S
C1877      C1881   1.527       .  S
C1877      C1879   1.533       .  S
C1878      H1884   1.076       .  S
C1880      C1881   1.337       .  D
C1881      C1928   1.424       .  S
C1886      C1887   1.515       .  S
C1886      C1892   1.526       .  S
C1886      C1890   1.623       .  S
C1887      C1888   1.337       .  D
C1887      H1894   1.090       .  S
C1888      C1889   1.519       .  S
C1889      H1895   1.095       .  S
C1889      C1893   1.527       .  S
C1889      C1891   1.533       .  S
C1890      C1891   1.430       .  D
C1890      H1896   1.076       .  S
C1892      C1893   1.337       .  D
C1892      H1897   1.079       .  S
C1893      C1930   1.424       .  S
C1898      C2020   1.603   1_554  S
C1898      C2175   1.515   1_554  S
C1898      C1904   1.526       .  S
C1898      C1902   1.623       .  S
C1899      C2174   1.515       .  S
C1899      C2176   1.337       .  D
C1899      H1906   1.090       .  S
C1900      C1901   1.519       .  S
C1900      C2175   1.337   1_554  D
C1900      C2073   1.438   1_554  S
C1901      H1907   1.095       .  S
C1901      C1905   1.527       .  S
C1901      C1903   1.533       .  S
C1902      C1903   1.430       .  D
C1902      H1908   1.076       .  S
C1904      C1905   1.337       .  D
C1904      H2185   1.079       .  S
C1905      C1931   1.424       .  S
H1909      C2180   1.079       .  S
O1910      C1926   1.264       .  A
C1911      O1924   1.276       .  A
O1912      C1925   1.276       .  A
O1912     Cd1919   2.044       .  S
O1913      C1931   1.275       .  A
O1913     Cd1922   2.022       .  S
O1914      C1928   1.275       .  A
O1914     Cd1918   2.022       .  S
O1915      C1926   1.276       .  A
Zn1916     O2205   1.968   1_554  S
Zn1916     O1921   1.717       .  S
O1917      C1928   1.262       .  A
O1917     Cd1922   1.978       .  S
Cd1918     O1920   1.978       .  S
Cd1918     O1921   1.905       .  S
Cd1919     O1923   2.021       .  S
Cd1919     O1932   1.978       .  S
Cd1919     O1921   1.905       .  S
O1920      C1930   1.262       .  A
O1921     Cd1922   1.905       .  S
Cd1922     O2200   2.044   1_554  S
O1923      C1930   1.275       .  A
O1924     Cd2198   2.044       .  S
C1925      C2024   1.438   1_554  S
C1925      O2205   1.264   1_554  A
O1929      C2201   1.264       .  A
O1929     Zn2192   1.968       .  S
C1931      O1932   1.262       .  A
C1933      H1934   1.075       .  S
C1933      C1939   1.627       .  S
C1933      C1938   1.627       .  S
C1933      C1937   1.627       .  S
C1935      H1936   1.042       .  S
C1935      C1941   1.603       .  S
C1935      C1940   1.603       .  S
C1935      C1942   1.603       .  S
C1937      C1940   1.392       .  D
C1937      C2098   1.585       .  S
C1938      C1941   1.392       .  D
C1938      C2110   1.585       .  S
C1939      C1942   1.392       .  D
C1939      C2086   1.585       .  S
C1943      H1944   1.075       .  S
C1943      C1949   1.627       .  S
C1943      C1948   1.627       .  S
C1943      C1947   1.627       .  S
C1945      H1946   1.042       .  S
C1945      C1951   1.603       .  S
C1945      C1950   1.603       .  S
C1945      C1952   1.603       .  S
C1947      C1950   1.392       .  D
C1947      C2179   1.585       .  S
C1948      C1951   1.392       .  D
C1948      C2155   1.585       .  S
C1949      C1952   1.392       .  D
C1949      C2167   1.585       .  S
C1950      C2105   1.603       .  S
C1952      C1965   1.603       .  S
C1953      C1957   1.623       .  S
C1955      C1956   1.519       .  S
C1956      H1962   1.095       .  S
C1956      C1960   1.527       .  S
C1956      C1958   1.533       .  S
C1957      H1963   1.076       .  S
C1958      C2017   1.585       .  S
C1959      C1960   1.337       .  D
C1960      C2009   1.424       .  S
C1965      C1966   1.515       .  S
C1965      C1971   1.526       .  S
C1965      C1969   1.623       .  S
C1966      C1967   1.337       .  D
C1966      H1973   1.090       .  S
C1967      C1968   1.519       .  S
C1967      C2133   1.438       .  S
C1968      H1974   1.095       .  S
C1968      C1972   1.527       .  S
C1968      C1970   1.533       .  S
C1969      C1970   1.430       .  D
C1969      H1975   1.076       .  S
C1970      C2018   1.585       .  S
C1971      C1972   1.337       .  D
C1971      H1976   1.079       .  S
C1972      C2010   1.424       .  S
C1977      C1983   1.526       .  S
C1977      C1981   1.623       .  S
C1978      H1985   1.090       .  S
C1979      C1980   1.519       .  S
C1980      H1986   1.095       .  S
C1980      C1984   1.527       .  S
C1980      C1982   1.533       .  S
C1981      C1982   1.430       .  D
C1981      H1987   1.076       .  S
C1982      C2016   1.585       .  S
C1983      C1984   1.337       .  D
C1984      C2007   1.424       .  S
C1990      O2003   1.276       .  A
O1991      C2004   1.276       .  A
O1992      C2010   1.275       .  A
O1992     Cd2001   2.022       .  S
O1993      C2007   1.275       .  A
O1993     Cd1997   2.022       .  S
O1994      C2005   1.276       .  A
Zn1995     O2000   1.717       .  S
O1996      C2007   1.262       .  A
O1996     Cd2001   1.978       .  S
Cd1997     O1999   1.978       .  S
Cd1997     O2000   1.905       .  S
Cd1998     O2002   2.022       .  S
Cd1998     O2011   1.978       .  S
Cd1998     O2000   1.905       .  S
O1999      C2009   1.262       .  A
O2000     Cd2001   1.905       .  S
Cd2001     O2003   2.044       .  S
O2002      C2009   1.275       .  A
C2004      C2095   1.438       .  S
C2004      O2008   1.264       .  A
C2010      O2011   1.262       .  A
C2012      H2013   1.075       .  S
C2012      C2018   1.627       .  S
C2012      C2017   1.627       .  S
C2012      C2016   1.627       .  S
C2014      H2015   1.042       .  S
C2014      C2020   1.603       .  S
C2014      C2019   1.603       .  S
C2014      C2021   1.603       .  S
C2016      C2019   1.392       .  D
C2017      C2020   1.392       .  D
C2018      C2021   1.392       .  D
C2019      C2081   1.603       .  S
C2021      C2034   1.603       .  S
C2022      C2026   1.623       .  S
C2024      C2025   1.519       .  S
C2025      H2031   1.095       .  S
C2025      C2029   1.527       .  S
C2025      C2027   1.533       .  S
C2026      H2032   1.076       .  S
C2027      C2148   1.585       .  S
C2028      C2029   1.337       .  D
C2029      C2079   1.424       .  S
C2034      C2035   1.515       .  S
C2034      C2040   1.526       .  S
C2034      C2038   1.623       .  S
C2035      C2036   1.337       .  D
C2035      H2042   1.090       .  S
C2036      C2037   1.519       .  S
C2036      C2132   1.438       .  S
C2037      H2043   1.095       .  S
C2037      C2041   1.527       .  S
C2037      C2039   1.533       .  S
C2038      C2039   1.430       .  D
C2038      H2044   1.076       .  S
C2039      C2147   1.585       .  S
C2040      C2041   1.337       .  D
C2040      H2045   1.079       .  S
C2041      C2076   1.424       .  S
C2046      C2052   1.526       .  S
C2046      C2050   1.623       .  S
C2047      H2054   1.090       .  S
C2048      C2049   1.519       .  S
C2049      H2055   1.095       .  S
C2049      C2053   1.527       .  S
C2049      C2051   1.533       .  S
C2050      C2051   1.430       .  D
C2050      H2056   1.076       .  S
C2051      C2149   1.585       .  S
C2052      C2053   1.337       .  D
C2053      C2078   1.424       .  S
C2059      C2107   1.438       .  S
C2059      O2075   1.264       .  A
C2059      O2072   1.276       .  A
O2060      C2073   1.276       .  A
O2061      C2079   1.275       .  A
O2061     Cd2070   2.022       .  S
O2062      C2076   1.275       .  A
O2062     Cd2066   2.022       .  S
O2063      C2074   1.276       .  A
O2063     Cd2066   2.044       .  S
Zn2064     O2069   1.717       .  S
O2065      C2076   1.262       .  A
O2065     Cd2070   1.978       .  S
Cd2066     O2068   1.978       .  S
Cd2066     O2069   1.905       .  S
Cd2067     O2071   2.021       .  S
Cd2067     O2080   1.978       .  S
Cd2067     O2069   1.905       .  S
O2068      C2078   1.262       .  A
O2069     Cd2070   1.905       .  S
O2071      C2078   1.275       .  A
C2079      O2080   1.262       .  A
C2081      C2085   1.623       .  S
C2082      C2083   1.337       .  D
C2083      C2084   1.519       .  S
C2083      C2202   1.438       .  S
C2084      H2090   1.095       .  S
C2084      C2088   1.527       .  S
C2084      C2086   1.533       .  S
C2085      H2091   1.076       .  S
C2087      C2088   1.337       .  D
C2087      H2092   1.079       .  S
C2088      C2135   1.424       .  S
C2093      C2097   1.623       .  S
C2093      C2146   1.603       .  S
C2094      C2095   1.337       .  D
C2095      C2096   1.519       .  S
C2096      H2102   1.095       .  S
C2096      C2100   1.527       .  S
C2096      C2098   1.533       .  S
C2097      H2103   1.076       .  S
C2099      C2100   1.337       .  D
C2099      H2104   1.079       .  S
C2100      C2137   1.424       .  S
C2105      C2109   1.623       .  S
C2106      C2107   1.337       .  D
C2107      C2108   1.519       .  S
C2108      H2114   1.095       .  S
C2108      C2112   1.527       .  S
C2108      C2110   1.533       .  S
C2109      H2115   1.076       .  S
C2111      C2112   1.337       .  D
C2111      H2116   1.079       .  S
C2112      C2138   1.424       .  S
O2117      C2133   1.264       .  A
O2117     Zn2123   1.968       .  S
C2118      C2164   1.438       .  S
C2118      O2134   1.264       .  A
C2118      O2131   1.276       .  A
O2119      C2132   1.276       .  A
O2119     Cd2126   2.044       .  S
O2120      C2138   1.275       .  A
O2120     Cd2129   2.022       .  S
O2121      C2135   1.275       .  A
O2121     Cd2125   2.022       .  S
O2122      C2133   1.276       .  A
O2122     Cd2125   2.044       .  S
Zn2123     O2134   1.968       .  S
Zn2123     O2136   1.968       .  S
Zn2123     O2128   1.717       .  S
O2124      C2135   1.262       .  A
O2124     Cd2129   1.978       .  S
Cd2125     O2127   1.978       .  S
Cd2125     O2128   1.905       .  S
Cd2126     O2130   2.022       .  S
Cd2126     O2139   1.978       .  S
Cd2126     O2128   1.905       .  S
O2127      C2137   1.262       .  A
O2128     Cd2129   1.905       .  S
Cd2129     O2131   2.044       .  S
O2130      C2137   1.275       .  A
C2132      O2136   1.264       .  A
C2138      O2139   1.262       .  A
C2140      H2141   1.042       .  S
C2140      C2146   1.603       .  S
C2140      C2145   1.603       .  S
C2140      C2144   1.603       .  S
C2142      H2143   1.075       .  S
C2142      C2148   1.627       .  S
C2142      C2147   1.627       .  S
C2142      C2149   1.627       .  S
C2144      C2162   1.603       .  S
C2144      C2147   1.392       .  D
C2145      C2148   1.392       .  D
C2146      C2149   1.392       .  D
C2150      C2154   1.623       .  S
C2152      C2153   1.519       .  S
C2153      H2159   1.095       .  S
C2153      C2157   1.527       .  S
C2153      C2155   1.533       .  S
C2154      H2160   1.076       .  S
C2156      C2157   1.337       .  D
C2157      C2204   1.424       .  S
C2162      C2163   1.515       .  S
C2162      C2168   1.526       .  S
C2162      C2166   1.623       .  S
C2163      C2164   1.337       .  D
C2163      H2170   1.090       .  S
C2164      C2165   1.519       .  S
C2165      H2171   1.095       .  S
C2165      C2169   1.527       .  S
C2165      C2167   1.533       .  S
C2166      C2167   1.430       .  D
C2166      H2172   1.076       .  S
C2168      C2169   1.337       .  D
C2168      H2173   1.079       .  S
C2169      C2206   1.424       .  S
C2174      C2180   1.526       .  S
C2174      C2178   1.623       .  S
C2175      H2182   1.090       .  S
C2176      C2177   1.519       .  S
C2177      H2183   1.095       .  S
C2177      C2181   1.527       .  S
C2177      C2179   1.533       .  S
C2178      C2179   1.430       .  D
C2178      H2184   1.076       .  S
C2180      C2181   1.337       .  D
C2181      C2207   1.424       .  S
O2186      C2202   1.264       .  A
C2187      O2200   1.276       .  A
O2188      C2201   1.276       .  A
O2188     Cd2195   2.044       .  S
O2189      C2207   1.275       .  A
O2189     Cd2198   2.022       .  S
O2190      C2204   1.275       .  A
O2190     Cd2194   2.022       .  S
O2191      C2202   1.276       .  A
Zn2192     O2197   1.717       .  S
O2193      C2204   1.262       .  A
O2193     Cd2198   1.978       .  S
Cd2194     O2196   1.978       .  S
Cd2194     O2197   1.905       .  S
Cd2195     O2199   2.021       .  S
Cd2195     O2208   1.978       .  S
Cd2195     O2197   1.905       .  S
O2196      C2206   1.262       .  A
O2197     Cd2198   1.905       .  S
O2199      C2206   1.275       .  A
C2207      O2208   1.262       .  A
