geometry optimzed in LAMMPS
_audit_creation_date              2020-11-30 
_audit_creation_method            'lammps2cif' 
_symmetry_space_group_name_H-M    'P1' 
_symmetry_Int_Tables_number       1 
_symmetry_cell_setting            triclinic 
loop_ 
_symmetry_equiv_pos_as_xyz 
  x,y,z 
_cell_length_a                    30.08781833 
_cell_length_b                    27.969950197669213 
_cell_length_c                    29.666764748257147 
_cell_angle_alpha                 89.8029207010794 
_cell_angle_beta                  89.545391185861 
_cell_angle_gamma                 89.5386414476028 
loop_ 
_atom_site_label 
_atom_site_type_symbol 
_atom_site_fract_x 
_atom_site_fract_y 
_atom_site_fract_z 
_atom_site_charge 
C1          C  0.10848982  0.13120838  0.09761012     0.46000
H2          H  0.08792582  0.10760056  0.07650363    -0.03000
C3          C  0.15781364  0.18475093  0.14712320     0.46100
H4          H  0.17821045  0.20973998  0.16617242    -0.03000
C5          C  0.08602152  0.18203104  0.10611313    -0.16700
C6          C  0.11758757  0.10830135  0.14637177    -0.16400
C7          C  0.15533128  0.14124511  0.07442369    -0.16800
C8          C  0.11118537  0.20879066  0.13670975    -0.16800
C9          C  0.14671204  0.13543084  0.17318235    -0.16300
C10         C  0.18047649  0.17367405  0.09886368    -0.16700
C11         C  0.86229376  0.68156779  0.36790670     0.46000
H12         H  0.84155383  0.70486316  0.34610677    -0.03000
C13         C  0.91020837  0.62833589  0.41950542     0.46100
H14         H  0.92948162  0.60560442  0.44271466    -0.03000
C15         C  0.87145032  0.62972989  0.34572984    -0.16700
C16         C  0.91024603  0.70516858  0.37745293    -0.16400
C17         C  0.83886506  0.67206326  0.41605135    -0.16800
C18         C  0.90107808  0.60268350  0.37286685    -0.16800
C19         C  0.93486624  0.67705022  0.40777085    -0.16300
C20         C  0.86369678  0.64031957  0.44236704    -0.16700
C21         C  0.93378859  0.27010438  0.99286689     0.87100
C22         C  0.94016822  0.32325495  0.98067675    -0.53200
C23         C  0.91826379  0.33937652  0.94311478     0.10000
C24         C  0.88947745  0.30157677  0.92155442     0.20900
C25         C  0.88050226  0.26985150  0.99768169    -0.53900
C26         C  0.85715305  0.28801331  0.95965584     0.10100
C27         C  0.94264840  0.24278601  0.94950986    -0.53400
C28         C  0.92046006  0.25854444  0.91314063     0.10700
H29         H  0.95872829  0.34729960  0.00192042     0.15200
H30         H  0.87229961  0.31438457  0.89097566     0.00900
H31         H  0.86374283  0.26023672  0.02885092     0.15500
H32         H  0.96647905  0.21341451  0.94721456     0.15300
C33         C  0.71851469  0.47224930  0.58350581     0.87100
C34         C  0.74121791  0.51728137  0.56676023    -0.53200
C35         C  0.77039546  0.53845950  0.59438042     0.10000
C36         C  0.77087945  0.51162965  0.64264835     0.20900
C37         C  0.75798270  0.44057280  0.59792488    -0.53900
C38         C  0.78461634  0.46045084  0.62982954     0.10100
C39         C  0.69538417  0.48471186  0.62789062    -0.53400
C40         C  0.72116171  0.50296573  0.66189464     0.10700
H41         H  0.74442843  0.52376278  0.53083116     0.15200
H42         H  0.79338658  0.52902948  0.66679250     0.00900
H43         H  0.76437933  0.40499507  0.58479794     0.15500
H44         H  0.66287322  0.46958963  0.63357411     0.15300
C45         C  0.51631942  0.10302250  0.74489932     0.87100
C46         C  0.53988416  0.08225759  0.78646199    -0.53200
C47         C  0.57804788  0.10404419  0.79867253     0.10000
C48         C  0.58621205  0.15097317  0.77345468     0.20900
C49         C  0.50620813  0.15636202  0.76248854    -0.53900
C50         C  0.54375568  0.18107847  0.77867202     0.10100
C51         C  0.55384447  0.11027458  0.70987631    -0.53400
C52         C  0.58926191  0.13661250  0.72354423     0.10700
H53         H  0.52670961  0.05455663  0.80799758     0.15200
H54         H  0.61470512  0.17115212  0.78640668     0.00900
H55         H  0.47304811  0.17182416  0.76331261     0.15500
H56         H  0.55260554  0.09394376  0.67682757     0.15300
Zr57       Zr  0.93902906  0.09787243  0.52358635     2.17500
O58         O  0.97627639  0.11641885  0.45229953    -0.50800
O59         O  0.96102455  0.01482520  0.52998583    -0.74000
O60         O  0.01694158  0.09281865  0.52346524    -0.80700
O61         O  0.82902388  0.09313513  0.46333444    -0.82500
O62         O  0.04418796  0.12576620  0.58740228    -0.78100
O63         O  0.90068620  0.06691134  0.46158629    -0.89700
O64         O  0.94062674  0.99210225  0.59991803    -0.75700
O65         O  0.94731341  0.08538315  0.59806789    -0.85200
O66         O  0.87083011  0.06577419  0.54979507    -0.84900
O67         O  0.96534587  0.17097181  0.55443750    -0.71600
O68         O  0.88744085  0.16126307  0.50932604    -0.83800
Zr69       Zr  0.85728219  0.18134311  0.64996806     2.26400
Zr70       Zr  0.97833962  0.15017991  0.63166333     2.06300
Zr71       Zr  0.81895178  0.13012425  0.53839289     2.10000
Zr72       Zr  0.88605421  0.04864010  0.62665045     1.78800
O73         O  0.77806917  0.18246572  0.48742688    -0.92600
O74         O  0.91859093  0.00930305  0.69217282    -0.40400
O75         O  0.83135220  0.10969964  0.61595545    -0.77000
O76         O  0.91043855  0.11889305  0.66303791    -0.95700
O77         O  0.92525415  0.21319996  0.62296793    -0.89000
O78         O  0.84232744  0.20278689  0.57383399    -0.91900
C79         C  0.96242746  0.98565783  0.56328591     1.01900
C80         C  0.86230051  0.07141389  0.44460762     1.14800
C81         C  0.04860248  0.10638764  0.54827425     1.05600
O82         O  0.02724224  0.10139716  0.67824987    -0.94000
O83         O  0.96913988  0.17825504  0.70916995    -0.89800
O84         O  0.89545091  0.19445627  0.71921989    -0.82900
C85         C  0.93538076  0.19107629  0.73323687     1.12200
O86         O  0.93545649  0.25094870  0.46992983    -0.96000
Zr87       Zr  0.91109455  0.23306630  0.54658013     1.88900
O88         O  0.86040973  0.26623523  0.65848388    -0.72600
O89         O  0.02752327  0.21884664  0.63475269    -0.51900
O90         O  0.98013203  0.27779485  0.54277932    -0.96600
O91         O  0.85981163  0.28689274  0.50778800    -0.53800
O92         O  0.89928218  0.29770180  0.60025015    -0.73200
C93         C  0.87881514  0.30137261  0.63822578     0.99200
O94         O  0.81038442  0.16337514  0.71514762    -0.62000
O95         O  0.76333565  0.06799862  0.53000122    -0.56800
O96         O  0.77906345  0.19529111  0.64354521    -0.93500
O97         O  0.75374565  0.15325661  0.58398004    -0.91900
O98         O  0.83766902  0.98359358  0.60440848    -0.92200
O99         O  0.83647789  0.03856526  0.69132807    -0.91000
C100        C  0.74761559  0.17730746  0.62051524     1.18000
H101        H  0.86256243  0.03711335  0.53394909     0.34000
H102        H  0.91332344  0.11093293  0.69455513     0.44800
H103        H  0.81947536  0.22716389  0.57210069     0.38400
H104        H  0.99230456  0.18120123  0.53956802     0.34800
H105        H  0.90838244  0.97579958  0.69062145     0.26600
H106        H  0.00765055  0.24671974  0.63984096     0.32600
H107        H  0.97071915  0.31119247  0.53676357     0.38500
H108        H  0.80730697  0.99744799  0.60602382     0.32900
H109        H  0.75104589  0.06276513  0.56066754     0.31800
H110        H  0.79978508  0.19059781  0.46340252     0.33500
H111        H  0.84379183  0.30454142  0.53188002     0.32500
H112        H  0.80757913  0.05234719  0.68194023     0.36500
H113        H  0.81597364  0.18840926  0.73786527     0.29200
H114        H  0.98094808  0.08543369  0.43683733     0.33400
H115        H  0.94940680  0.22088734  0.45913025     0.36300
H116        H  0.73888772  0.08360554  0.51315587     0.28900
H117        H  0.82307686  0.13371668  0.72813535     0.41800
H118        H  0.01296886  0.06966071  0.67926454     0.31800
H119        H  0.95090382  0.00748658  0.68580958     0.39400
H120        H  0.83714556  0.26572748  0.49465744     0.31300
H121        H  0.04372428  0.21489102  0.66346588     0.31300
H122        H  0.95398291  0.13366545  0.43388176     0.31600
C123        C  0.65808785  0.38380848  0.86554148     0.46000
H124        H  0.67846013  0.36451854  0.84061597    -0.03000
C125        C  0.60992244  0.43562465  0.91834140     0.46100
H126        H  0.58993300  0.45673506  0.94250733    -0.03000
C127        C  0.64913190  0.43606943  0.84529447    -0.16700
C128        C  0.61059053  0.35982131  0.87301324    -0.16400
C129        C  0.68059923  0.38901504  0.91516749    -0.16800
C130        C  0.62019702  0.46329922  0.87270951    -0.16800
C131        C  0.58598806  0.38687579  0.90381472    -0.16300
C132        C  0.65639880  0.42331525  0.94097536    -0.16700
C133        C  0.24926860  0.03639735  0.91803180     0.87100
C134        C  0.30023608  0.03900176  0.92077860    -0.53200
C135        C  0.32249446  0.00043780  0.90448258     0.10000
C136        C  0.29372522  0.96572025  0.87873435     0.20900
C137        C  0.24417478  0.03324307  0.86416878    -0.53900
C138        C  0.26909214  0.99550654  0.84373563     0.10100
C139        C  0.23727005  0.98578984  0.93329024    -0.53400
C140        C  0.25881919  0.94891274  0.91225125     0.10700
H141        H  0.31808461  0.06856269  0.93535205     0.15200
H142        H  0.31388519  0.93737350  0.86269539     0.00900
H143        H  0.22566658  0.05931208  0.84458925     0.15500
H144        H  0.21413452  0.97982931  0.96100757     0.15300
C145        C  0.50857054  0.60641404  0.77715893     0.87100
C146        C  0.51576549  0.57797629  0.73361133    -0.53200
C147        C  0.48383164  0.58432393  0.70176147     0.10000
C148        C  0.44886863  0.62236616  0.71417093     0.20900
C149        C  0.50447449  0.66064666  0.75986364    -0.53900
C150        C  0.47205432  0.66969494  0.72617423     0.10100
C151        C  0.46031153  0.59423173  0.78993665    -0.53400
C152        C  0.42996888  0.60398226  0.75813469     0.10700
H153        H  0.53976019  0.54894348  0.73155405     0.15200
H154        H  0.42330329  0.62481746  0.68816755     0.00900
H155        H  0.52339032  0.68875860  0.77548787     0.15500
H156        H  0.44851658  0.57921683  0.82112833     0.15300
C157        C  0.09578976  0.75473874  0.51021475     0.87100
C158        C  0.06793274  0.79758625  0.52346636    -0.53200
C159        C  0.08254797  0.82398803  0.55763807     0.10000
C160        C  0.12676308  0.80618941  0.57779111     0.20900
C161        C  0.14381234  0.77886098  0.50151691    -0.53900
C162        C  0.16071949  0.80580435  0.53849719     0.10100
C163        C  0.10584136  0.72697252  0.55390179    -0.53400
C164        C  0.11937728  0.75322522  0.59000017     0.10700
H165        H  0.03796895  0.80792043  0.50526378     0.15200
H166        H  0.13851208  0.82711712  0.60643217     0.00900
H167        H  0.16260844  0.77392221  0.47057737     0.15500
H168        H  0.09942496  0.68894013  0.55640206     0.15300
Zr169      Zr  0.08100452  0.56723443  0.97533741     2.17500
O170        O  0.08440000  0.49309132  0.01914202    -0.50800
O171        O  0.01063496  0.59566971  0.00331562    -0.74000
O172        O  0.09827500  0.56507635  0.05371432    -0.80700
O173        O  0.01981824  0.52831344  0.87274115    -0.82500
O174        O  0.15405393  0.61761597  0.06650364    -0.78100
O175        O  0.03727793  0.50550065  0.94365388    -0.89700
O176        O  0.99331856  0.67067671  0.97904952    -0.75700
O177        O  0.08917927  0.64924839  0.99272001    -0.85200
O178        O  0.04378181  0.61025771  0.91719815    -0.84900
O179        O  0.15930424  0.57591566  0.97872557    -0.71600
O180        O  0.11452749  0.53879450  0.90720409    -0.83800
Zr181      Zr  0.16692209  0.67853200  0.86908120     2.26400
Zr182      Zr  0.16770434  0.65857620  0.99532122     2.06300
Zr183      Zr  0.07843372  0.58421022  0.84907554     2.10000
Zr184      Zr  0.05439588  0.69248349  0.93266986     1.78800
O185        O  0.10202691  0.51662709  0.80302279    -0.92600
O186        O  0.04331734  0.75640277  0.98724809    -0.40400
O187        O  0.08841274  0.66783381  0.86391440    -0.77000
O188        O  0.13163828  0.70422143  0.93711181    -0.95700
O189        O  0.20426711  0.63502578  0.92655978    -0.89000
O190        O  0.15689587  0.59644490  0.85038791    -0.91900
C191        C  0.98500387  0.63212929  0.00008221     1.01900
C192        C  0.01329241  0.50317524  0.90859822     1.14800
C193        C  0.12666773  0.58514840  0.07895047     1.05600
O194        O  0.15040679  0.71392014  0.05626202    -0.94000
O195        O  0.20635110  0.73211687  0.98372822    -0.89800
O196        O  0.20774352  0.74113631  0.90737766    -0.82900
C197        C  0.21577868  0.75502646  0.94771126     1.12200
O198        O  0.20760826  0.48089786  0.95294493    -0.96000
Zr199      Zr  0.19286578  0.55294662  0.90897847     1.88900
O200        O  0.23447283  0.65157581  0.83532528    -0.72600
O201        O  0.24291123  0.64464239  0.02246658    -0.51900
O202        O  0.26608618  0.55120021  0.94351248    -0.96600
O203        O  0.19252797  0.48037380  0.86379185    -0.53800
O204        O  0.24625543  0.57328764  0.85170419    -0.73200
C205        C  0.25638253  0.61258150  0.83228591     0.99200
O206        O  0.17756618  0.75029762  0.82323358    -0.62000
O207        O  0.01337081  0.59277988  0.80117263    -0.56800
O208        O  0.14008464  0.68643203  0.79354758    -0.93500
O209        O  0.09026342  0.62792652  0.77848603    -0.91900
O210        O  0.98880246  0.70249726  0.88594877    -0.92200
O211        O  0.05606546  0.77107319  0.89697917    -0.91000
C212        C  0.11379896  0.66434367  0.76732793     1.18000
H213        H  0.01240989  0.60365450  0.91640062     0.34000
H214        H  0.13409638  0.73835747  0.94183904     0.44800
H215        H  0.16902120  0.58887397  0.82099405     0.38400
H216        H  0.17169858  0.55628976  0.00241852     0.34800
H217        H  0.01229101  0.76739980  0.98278093     0.26600
H218        H  0.24322798  0.61079416  0.03233709     0.32600
H219        H  0.28564908  0.53441950  0.92160357     0.38500
H220        H  0.96993260  0.72586599  0.90244302     0.32900
H221        H  0.00914516  0.56080842  0.78769198     0.31800
H222        H  0.08946423  0.48833321  0.81851459     0.33500
H223        H  0.19711525  0.49147993  0.83240338     0.32500
H224        H  0.08614025  0.77355380  0.88342513     0.36500
H225        H  0.16698444  0.77758584  0.84171478     0.29200
H226        H  0.09746160  0.46888592  0.99855955     0.33400
H227        H  0.17853972  0.47244584  0.96651314     0.36300
H228        H  0.98787175  0.59703907  0.82212046     0.28900
H229        H  0.21014271  0.75439165  0.82046359     0.41800
H230        H  0.12228331  0.72963174  0.04710584     0.31800
H231        H  0.04295575  0.74028009  0.01700456     0.39400
H232        H  0.16137059  0.46928982  0.86473447     0.31300
H233        H  0.26197342  0.64517601  0.99511316     0.31300
H234        H  0.05351270  0.48257770  0.02452453     0.31600
C235        C  0.42880100  0.30189227  0.00696351     0.87100
C236        C  0.45111280  0.25375115  0.01746060    -0.53200
C237        C  0.43517547  0.22966028  0.05349771     0.10000
C238        C  0.39557689  0.25459906  0.07642495     0.20900
C239        C  0.37747992  0.28637464  0.00197077    -0.53900
C240        C  0.35906911  0.26200354  0.04038357     0.10100
C241        C  0.42451789  0.33005320  0.05059756    -0.53400
C242        C  0.41062594  0.30532946  0.08695256     0.10700
H243        H  0.47820222  0.23960442  0.99689140     0.15200
H244        H  0.38551306  0.23434947  0.10675932     0.00900
H245        H  0.35781388  0.29679425  0.97316677     0.15500
H246        H  0.43371243  0.36750985  0.05277504     0.15300
C247        C  0.19187560  0.05109654  0.42916231     0.87100
C248        C  0.22370379  0.00912233  0.43709206    -0.53200
C249        C  0.26464832  0.01311594  0.41760779     0.10000
C250        C  0.26479204  0.05584565  0.38046112     0.20900
C251        C  0.21917696  0.09607661  0.43504677    -0.53900
C252        C  0.25594663  0.10013552  0.40904672     0.10100
C253        C  0.18385379  0.04761934  0.37828773    -0.53400
C254        C  0.22030874  0.05374280  0.35053880     0.10700
H255        H  0.21655826  0.97979770  0.45977939     0.15200
H256        H  0.29551775  0.05755391  0.35967654     0.00900
H257        H  0.20945404  0.12402881  0.45872313     0.15500
H258        H  0.15055138  0.04463168  0.36527568     0.15300
C259        C  0.02118923  0.45155012  0.28517690     0.87100
C260        C  0.03933129  0.48709526  0.25041921    -0.53200
C261        C  0.07791131  0.47517955  0.22854311     0.10000
C262        C  0.09167344  0.42293385  0.23872414     0.20900
C263        C  0.01349348  0.40574714  0.25467215    -0.53900
C264        C  0.05132184  0.39036999  0.23016926     0.10100
C265        C  0.06169337  0.43505864  0.31350289    -0.53400
C266        C  0.09842042  0.42223487  0.28919230     0.10700
H267        H  0.02067145  0.51936686  0.24339004     0.15200
H268        H  0.12126866  0.40902197  0.22138579     0.00900
H269        H  0.98256636  0.38639669  0.25367010     0.15500
H270        H  0.06220457  0.43624079  0.35007190     0.15300
Zr271      Zr  0.37763194  0.35832978  0.36894974     2.17500
O272        O  0.37763152  0.28419710  0.32572242    -0.50800
O273        O  0.30312961  0.38052519  0.34843693    -0.74000
O274        O  0.33877744  0.29562621  0.40663439    -0.80700
O275        O  0.43564973  0.42372585  0.27252958    -0.82500
O276        O  0.35800148  0.29134645  0.48068815    -0.78100
O277        O  0.38469228  0.36615090  0.28918652    -0.89700
O278        O  0.28605373  0.44352326  0.39276154    -0.75700
O279        O  0.34875420  0.39228727  0.43641629    -0.85200
O280        O  0.38083581  0.44174222  0.35522246    -0.84900
O281        O  0.42455217  0.32752010  0.42706325    -0.71600
O282        O  0.45387501  0.37433513  0.35290109    -0.83800
Zr283      Zr  0.47813636  0.46071815  0.46626519     2.26400
Zr284      Zr  0.39742664  0.36476793  0.49526593     2.06300
Zr285      Zr  0.45763261  0.45984436  0.34273946     2.10000
Zr286      Zr  0.35374450  0.47578241  0.42272071     1.78800
O287        O  0.52597712  0.45799067  0.29824303    -0.92600
O288        O  0.30113555  0.49028975  0.48412664    -0.40400
O289        O  0.43039133  0.49442507  0.41076829    -0.77000
O290        O  0.40112264  0.44883587  0.48139847    -0.95700
O291        O  0.47438588  0.37768227  0.48013690    -0.89000
O292        O  0.50555728  0.42655116  0.39831337    -0.91900
C293        C  0.27588809  0.41188332  0.36365883     1.01900
C294        C  0.40893742  0.39018324  0.26199221     1.14800
C295        C  0.33927561  0.27535383  0.44524862     1.05600
O296        O  0.32983379  0.36289991  0.54089100    -0.94000
O297        O  0.41229519  0.41341409  0.56264755    -0.89800
O298        O  0.47647631  0.45229812  0.54624240    -0.82900
C299        C  0.44375177  0.44264843  0.57217010     1.12200
O300        O  0.50279055  0.26299302  0.38014728    -0.96000
Zr301      Zr  0.50066431  0.34339733  0.41149017     1.88900
O302        O  0.55138731  0.43530546  0.48600069    -0.72600
O303        O  0.43027373  0.30654326  0.54668706    -0.51900
O304        O  0.51874585  0.28179039  0.46673663    -0.96600
O305        O  0.55061861  0.33194299  0.34737152    -0.53800
O306        O  0.57003801  0.36981828  0.44451040    -0.73200
C307        C  0.57907167  0.40381426  0.47172831     0.99200
O308        O  0.47199571  0.54248504  0.49363246    -0.62000
O309        O  0.43009111  0.52557127  0.29628924    -0.56800
O310        O  0.53162677  0.50634010  0.42630406    -0.93500
O311        O  0.49307967  0.53419298  0.36819493    -0.91900
O312        O  0.34306802  0.53464298  0.36294976    -0.92200
O313        O  0.33938506  0.55618030  0.45087634    -0.91000
C314        C  0.52133628  0.54011452  0.39999961     1.18000
H315        H  0.36289739  0.45092407  0.32968740     0.34000
H316        H  0.39155113  0.46752061  0.50682232     0.44800
H317        H  0.53610357  0.43337534  0.39057863     0.38400
H318        H  0.42258465  0.29318149  0.42885838     0.34800
H319        H  0.27156437  0.49146602  0.46972377     0.26600
H320        H  0.43500125  0.27750116  0.52820718     0.32600
H321        H  0.55085090  0.27523563  0.46219648     0.38500
H322        H  0.37049044  0.55398293  0.36287679     0.32900
H323        H  0.45401275  0.53129506  0.27386597     0.31800
H324        H  0.53466104  0.49191510  0.29513135     0.33500
H325        H  0.58056901  0.32867879  0.36065459     0.32500
H326        H  0.36840048  0.57250154  0.44880903     0.36500
H327        H  0.44057924  0.55177487  0.48914955     0.29200
H328        H  0.34597281  0.27595031  0.32164010     0.33400
H329        H  0.47157718  0.25571202  0.37268452     0.36300
H330        H  0.40537002  0.51215206  0.27865438     0.28900
H331        H  0.47622348  0.54124071  0.52657154     0.41800
H332        H  0.30565842  0.37094439  0.51965921     0.31800
H333        H  0.30109096  0.46014961  0.50170060     0.39400
H334        H  0.55099587  0.36330945  0.33181773     0.31300
H335        H  0.46057924  0.31844852  0.55250354     0.31300
H336        H  0.38961353  0.25917989  0.34608041     0.31600
C337        C  0.40877668  0.93735095  0.59829502     0.46000
H338        H  0.42972097  0.96185812  0.57797026    -0.03000
C339        C  0.35838723  0.88236767  0.64534320     0.46100
H340        H  0.33548580  0.85918664  0.66320075    -0.03000
C341        C  0.39479057  0.96073299  0.64580289    -0.16700
C342        C  0.36437741  0.92214282  0.57173959    -0.16400
C343        C  0.43438117  0.88917907  0.61068256    -0.16800
C344        C  0.36225679  0.93403148  0.66873050    -0.16800
C345        C  0.33901127  0.89012732  0.59636782    -0.16300
C346        C  0.40822309  0.86030376  0.63955894    -0.16700
C347        C  0.00019403  0.95973303  0.24124665     0.87100
C348        C  0.98296907  0.98719505  0.28315737    -0.53200
C349        C  0.94555064  0.96980348  0.30417886     0.10000
C350        C  0.93134043  0.92151713  0.28329616     0.20900
C351        C  0.00895935  0.90776663  0.26225120    -0.53900
C352        C  0.97204349  0.88769828  0.28475635     0.10100
C353        C  0.95934393  0.95094527  0.21208118    -0.53400
C354        C  0.92366879  0.93203338  0.23348385     0.10700
H355        H  0.00056644  0.01812455  0.29503857     0.15200
H356        H  0.90144677  0.90490183  0.29789406     0.00900
H357        H  0.04021898  0.88865235  0.25980616     0.15500
H358        H  0.95838874  0.96148787  0.17687075     0.15300
C359        C  0.58572360  0.79696169  0.49901145     0.87100
C360        C  0.56413807  0.75041471  0.48473413    -0.53200
C361        C  0.58166104  0.72896426  0.44794469     0.10000
C362        C  0.62246801  0.75365070  0.42837680     0.20900
C363        C  0.63657705  0.77917956  0.50547500    -0.53900
C364        C  0.65597741  0.75520200  0.46759179     0.10100
C365        C  0.59017146  0.82772911  0.45638430    -0.53400
C366        C  0.60745380  0.80575711  0.41916316     0.10700
H367        H  0.53683714  0.73449624  0.50363526     0.15200
H368        H  0.63541674  0.73485992  0.39813389     0.00900
H369        H  0.65464652  0.78375770  0.53655822     0.15500
H370        H  0.58078418  0.86522064  0.45668601     0.15300
C371        C  0.82342235  0.57282259  0.08727038     0.87100
C372        C  0.79723958  0.52840123  0.07394373    -0.53200
C373        C  0.75535504  0.52494040  0.09173650     0.10000
C374        C  0.75093779  0.56085510  0.13494641     0.20900
C375        C  0.79068596  0.61457132  0.08600021    -0.53900
C376        C  0.75348681  0.60982642  0.11125587     0.10100
C377        C  0.83235940  0.56290218  0.13626116    -0.53400
C378        C  0.79687905  0.55920388  0.16500287     0.10700
H379        H  0.80793081  0.50327164  0.04865859     0.15200
H380        H  0.72006958  0.55596030  0.15498961     0.00900
H381        H  0.79733493  0.64713410  0.06695239     0.15500
H382        H  0.86636803  0.56512853  0.14711211     0.15300
Zr383      Zr  0.65380855  0.85952426  0.12818040     2.17500
O384        O  0.65299799  0.77528733  0.14958568    -0.50800
O385        O  0.72378135  0.87759134  0.16307794    -0.74000
O386        O  0.71320679  0.82808376  0.08285463    -0.80700
O387        O  0.58649945  0.91542222  0.22253722    -0.82500
O388        O  0.68943889  0.80426634  0.01720051    -0.78100
O389        O  0.62950589  0.85129049  0.20516008    -0.89700
O390        O  0.74974706  0.94098016  0.12291689    -0.75700
O391        O  0.69277351  0.90392500  0.07220344    -0.85200
O392        O  0.64744253  0.94033506  0.15188974    -0.84900
O393        O  0.61895067  0.84040211  0.05802445    -0.71600
O394        O  0.57563685  0.87536769  0.13024065    -0.83800
Zr395      Zr  0.57729167  0.98394440  0.02811493     2.26400
Zr396      Zr  0.65978674  0.88532780  0.00117992     2.06300
Zr397      Zr  0.56965830  0.95734785  0.15275181     2.10000
Zr398      Zr  0.68651515  0.98457581  0.09618542     1.78800
O399        O  0.49795438  0.93908311  0.18692050    -0.92600
O400        O  0.74987830  0.01388486  0.05284748    -0.40400
O401        O  0.60939394  0.00458056  0.09859317    -0.77000
O402        O  0.65515917  0.96744813  0.02519809    -0.95700
O403        O  0.58170575  0.90367262  0.00254182    -0.89000
O404        O  0.53519775  0.94060492  0.08216721    -0.91900
C405        C  0.75447039  0.90644432  0.15069582     1.01900
C406        C  0.60766373  0.87705569  0.23333277     1.14800
C407        C  0.70640523  0.79426071  0.05565488     1.05600
O408        O  0.73778872  0.88933784  0.97904242    -0.94000
O409        O  0.65707030  0.94084206  0.93563100    -0.89800
O410        O  0.60548840  0.99746572  0.95428688    -0.82900
C411        C  0.63500626  0.97986671  0.92797070     1.12200
O412        O  0.53128755  0.77698110  0.08127829    -0.96000
Zr413      Zr  0.54212018  0.85986479  0.05863935     1.88900
O414        O  0.50995423  0.96789638  0.99032395    -0.72600
O415        O  0.64180018  0.83880407  0.93469283    -0.51900
O416        O  0.54121601  0.80628628  0.99411719    -0.96600
O417        O  0.47546077  0.84101547  0.10198493    -0.53800
O418        O  0.48455636  0.89544417  0.01267436    -0.73200
C419        C  0.48116551  0.93488416  0.99084703     0.99200
O420        O  0.57753575  0.06240544  0.99168080    -0.62000
O421        O  0.58870066  0.01551054  0.21034689    -0.56800
O422        O  0.53110300  0.04193961  0.06455361    -0.93500
O423        O  0.52460738  0.02881427  0.13989984    -0.91900
O424        O  0.70536830  0.02527185  0.16592503    -0.92200
O425        O  0.68202992  0.06884670  0.07542534    -0.91000
C426        C  0.51688062  0.05270552  0.10379853     1.18000
H427        H  0.66036073  0.94481715  0.18127313     0.34000
H428        H  0.67074004  0.98844838  0.00477837     0.44800
H429        H  0.50442761  0.95073591  0.08273368     0.38400
H430        H  0.61979156  0.80630607  0.05326400     0.34800
H431        H  0.76983042  0.02791730  0.07557432     0.26600
H432        H  0.67054904  0.82469740  0.92484101     0.32600
H433        H  0.51114774  0.80997988  0.98120204     0.38500
H434        H  0.67700735  0.03960688  0.17657466     0.32900
H435        H  0.59070984  0.04655405  0.19434694     0.31800
H436        H  0.47578107  0.94755805  0.16369665     0.33500
H437        H  0.45183296  0.83733993  0.07926304     0.32500
H438        H  0.70001225  0.08594991  0.09793465     0.36500
H439        H  0.58731029  0.08541214  0.01480007     0.29200
H440        H  0.62355843  0.76988415  0.16375325     0.33400
H441        H  0.55348706  0.77135812  0.10521918     0.36300
H442        H  0.56167660  0.01834191  0.22944608     0.28900
H443        H  0.54609678  0.07078785  0.98556575     0.41800
H444        H  0.74037394  0.91936791  0.96148812     0.31800
H445        H  0.76568471  0.98471902  0.04242047     0.39400
H446        H  0.46780214  0.87092255  0.11808330     0.31300
H447        H  0.62461040  0.81137420  0.94646865     0.31300
H448        H  0.67447769  0.77224568  0.17452941     0.31600
C449        C  0.72352279  0.65229380  0.11401652    -0.04800
C450        C  0.69258572  0.65937043  0.07905290    -0.01900
C451        C  0.68700603  0.70517246  0.05881466     0.03100
C452        C  0.71362501  0.74409336  0.07269349    -0.04800
C453        C  0.74229602  0.73660769  0.10983129    -0.01900
C454        C  0.74289911  0.69290504  0.13313017     0.03100
C455        C  0.66647859  0.61930870  0.06410126     0.37800
C456        C  0.77442524  0.77196147  0.12312126     0.37800
C457        C  0.76819355  0.68924943  0.17434431     0.36200
C458        C  0.65438066  0.71151679  0.02361807     0.36200
N459        N  0.78847856  0.69058053  0.20725092    -0.38600
N460        N  0.62828554  0.71635562  0.99548188    -0.38600
N461        N  0.80165184  0.79751441  0.13544740    -0.38100
N462        N  0.64459774  0.58796921  0.05234746    -0.38100
C463        C  0.60894763  0.82891881  0.37315781    -0.04800
C464        C  0.64540674  0.81995427  0.34393127    -0.01900
C465        C  0.64453835  0.83473622  0.29857608     0.03100
C466        C  0.60804696  0.86150359  0.28163297    -0.04800
C467        C  0.57290490  0.87384500  0.31151253    -0.01900
C468        C  0.57324147  0.85779479  0.35672582     0.03100
C469        C  0.68591900  0.79775246  0.35993264     0.37800
C470        C  0.53523608  0.90227327  0.29611276     0.37800
C471        C  0.53631215  0.87260157  0.38525307     0.36200
C472        C  0.68250794  0.82245810  0.27002552     0.36200
N473        N  0.50665628  0.88736913  0.40616993    -0.38600
N474        N  0.71292633  0.81185733  0.24800682    -0.38600
N475        N  0.50502101  0.92516606  0.28497344    -0.38100
N476        N  0.71970448  0.78045901  0.36889729    -0.38100
C477        C  0.79753365  0.90371560  0.17251102    -0.04800
C478        C  0.83671713  0.89817523  0.14656342    -0.01900
C479        C  0.87829118  0.90374951  0.16704263     0.03100
C480        C  0.88042452  0.92322420  0.21110326    -0.06800
C481        C  0.84029960  0.93419184  0.23422277    -0.01900
C482        C  0.79968483  0.91889668  0.21731313     0.03100
C483        C  0.83421624  0.88762334  0.09871014     0.37800
C484        C  0.83820508  0.97006379  0.26906068     0.37800
C485        C  0.75924339  0.92512080  0.24401909     0.36200
C486        C  0.91806296  0.89070928  0.14182517     0.36200
N487        N  0.72715106  0.93008622  0.26531011    -0.38600
N488        N  0.94955776  0.88064051  0.12117503    -0.38600
N489        N  0.83172835  0.00059461  0.29447863    -0.38100
N490        N  0.83219184  0.87911529  0.06063047    -0.38100
C491        C  0.47679572  0.87089666  0.58361074    -0.04800
C492        C  0.47322852  0.86058233  0.53750577    -0.01900
C493        C  0.50477436  0.83100124  0.51491329     0.03100
C494        C  0.54945285  0.82345526  0.53143829    -0.04800
C495        C  0.55748705  0.84627038  0.57357188    -0.01900
C496        C  0.52213312  0.87132524  0.59818647     0.03100
C497        C  0.45321048  0.89722909  0.50977571     0.37800
C498        C  0.60236102  0.84715491  0.59037475     0.37800
C499        C  0.53460725  0.90874192  0.62889649     0.36200
C500        C  0.48943671  0.81007261  0.47317896     0.36200
N501        N  0.54519493  0.94004827  0.65176584    -0.38600
N502        N  0.47645714  0.79252504  0.44058023    -0.38600
N503        N  0.63822055  0.84821627  0.60413395    -0.38100
N504        N  0.44148081  0.92846495  0.48698686    -0.38100
C505        C  0.54067556  0.58781457  0.41021699    -0.04800
C506        C  0.54122695  0.62486804  0.37757180    -0.01900
C507        C  0.55362429  0.67153902  0.38992363     0.03100
C508        C  0.56694992  0.68100167  0.43444246    -0.04800
C509        C  0.56924082  0.64378275  0.46640600    -0.01900
C510        C  0.55692287  0.59747104  0.45447429     0.03100
C511        C  0.53192126  0.61467531  0.33069336     0.37800
C512        C  0.58852302  0.65208437  0.51065048     0.37800
C513        C  0.56231321  0.56070129  0.48884461     0.36200
C514        C  0.55233672  0.70984001  0.35687533     0.36200
N515        N  0.56641452  0.53259369  0.51727846    -0.38600
N516        N  0.55122551  0.74018435  0.33028743    -0.38600
N517        N  0.60418227  0.65842418  0.54561664    -0.38100
N518        N  0.52522578  0.60648719  0.29315007    -0.38100
C519        C  0.14363424  0.41870854  0.30860359    -0.04800
C520        C  0.16377599  0.37383076  0.31645016    -0.01900
C521        C  0.20769838  0.37113520  0.33274426     0.03100
C522        C  0.23014497  0.41340950  0.34528901    -0.04800
C523        C  0.20943959  0.45822618  0.33762609    -0.01900
C524        C  0.16841707  0.46059177  0.31581152     0.03100
C525        C  0.14000376  0.33027054  0.30682590     0.37800
C526        C  0.23040112  0.50283447  0.35052280     0.37800
C527        C  0.15516019  0.50634375  0.29731304     0.36200
C528        C  0.22948539  0.32482091  0.33604645     0.36200
N529        N  0.14868061  0.54450409  0.28365761    -0.38600
N530        N  0.24715953  0.28796749  0.33759816    -0.38600
N531        N  0.24582526  0.53877378  0.36126681    -0.38100
N532        N  0.12200596  0.29473010  0.29977528    -0.38100
C533        C  0.30177800  0.99454378  0.45010295    -0.04800
C534        C  0.31730126  0.94638935  0.44795813    -0.01900
C535        C  0.34003775  0.92339114  0.48510343     0.03100
C536        C  0.34597548  0.94664812  0.52770506    -0.04800
C537        C  0.32907253  0.99383661  0.52976708    -0.01900
C538        C  0.31002979  0.01811937  0.49187527     0.03100
C539        C  0.30831994  0.91930413  0.40752792     0.37800
C540        C  0.32426169  0.01611909  0.57307383     0.37800
C541        C  0.29582874  0.06705007  0.49920152     0.36200
C542        C  0.35826396  0.87617711  0.47739775     0.36200
N543        N  0.28603646  0.10573058  0.50912666    -0.38600
N544        N  0.37385707  0.83962287  0.46778127    -0.38600
N545        N  0.31691954  0.03584552  0.60632203    -0.38100
N546        N  0.30121082  0.89721937  0.37550179    -0.38100
C547        C  0.28118092  0.14534985  0.41101747    -0.04800
C548        C  0.25611927  0.18832535  0.41352709    -0.01900
C549        C  0.27330890  0.22794812  0.43535430     0.03100
C550        C  0.31845997  0.22878077  0.44594499    -0.04800
C551        C  0.34546703  0.18785178  0.43920819    -0.01900
C552        C  0.32679632  0.14581149  0.42172649     0.03100
C553        C  0.21342464  0.19278580  0.39152062     0.37800
C554        C  0.39234601  0.18932901  0.45021074     0.37800
C555        C  0.35459391  0.10401157  0.41422403     0.36200
C556        C  0.24478549  0.26845347  0.44646757     0.36200
N557        N  0.37733905  0.07110372  0.40789402    -0.38600
N558        N  0.22192888  0.30033167  0.45615076    -0.38600
N559        N  0.42962151  0.19057382  0.45943920    -0.38100
N560        N  0.18011438  0.19827208  0.37297246    -0.38100
C561        C  0.45591238  0.18413047  0.07036701    -0.04800
C562        C  0.50259557  0.18041764  0.07694958    -0.01900
C563        C  0.52108594  0.13901625  0.09625604     0.03100
C564        C  0.49431900  0.09920787  0.10550533    -0.04800
C565        C  0.44813573  0.10223001  0.09942231    -0.01900
C566        C  0.42892666  0.14448157  0.08181365     0.03100
C567        C  0.53311005  0.21751371  0.06310397     0.37800
C568        C  0.42077071  0.06095215  0.10919808     0.37800
C569        C  0.38208564  0.14485638  0.07123398     0.36200
C570        C  0.56881222  0.13580505  0.10375554     0.36200
N571        N  0.34470743  0.14426329  0.06259962    -0.38600
N572        N  0.60673510  0.13319401  0.10957749    -0.38600
N573        N  0.39873676  0.02823989  0.11722806    -0.38100
N574        N  0.56036888  0.24402965  0.05190994    -0.38100
C575        C  0.40964141  0.32765649  0.13187961    -0.04800
C576        C  0.38712133  0.37195021  0.13850732    -0.01900
C577        C  0.38766433  0.39393680  0.18102171     0.03100
C578        C  0.41077448  0.37177090  0.21638012    -0.04800
C579        C  0.43281240  0.32776619  0.21005196    -0.01900
C580        C  0.43234998  0.30570734  0.16794941     0.03100
C581        C  0.36164857  0.39378404  0.10239416     0.37800
C582        C  0.45531545  0.30450329  0.24759745     0.37800
C583        C  0.45555694  0.26050665  0.16303504     0.36200
C584        C  0.36288163  0.43785579  0.18896871     0.36200
N585        N  0.47452581  0.22441745  0.16275214    -0.38600
N586        N  0.34277615  0.47270147  0.19516189    -0.38600
N587        N  0.47278465  0.28595309  0.27762158    -0.38100
N588        N  0.34162341  0.41124226  0.07344349    -0.38100
C589        C  0.94081695  0.62620449  0.01795888    -0.04800
C590        C  0.92973830  0.64360961  0.06034824    -0.01900
C591        C  0.89088818  0.62755474  0.08136034     0.03100
C592        C  0.86523661  0.58959102  0.06175285    -0.04800
C593        C  0.87567202  0.57604746  0.01647107    -0.01900
C594        C  0.91188585  0.59690317  0.99421857     0.03100
C595        C  0.95792255  0.67878859  0.08178099     0.37800
C596        C  0.85118939  0.54138049  0.99078773     0.37800
C597        C  0.92028574  0.58746432  0.94662310     0.36200
C598        C  0.87807365  0.65157499  0.12287153     0.36200
N599        N  0.92632128  0.58008289  0.90870435    -0.38600
N600        N  0.86952008  0.67130729  0.15602985    -0.38600
N601        N  0.83408896  0.51365629  0.96793870    -0.38100
N602        N  0.97981625  0.70721807  0.09886050    -0.38100
C603        C  0.12801461  0.56687112  0.12500684    -0.04800
C604        C  0.15117558  0.52412955  0.13394857    -0.01900
C605        C  0.14115079  0.49784201  0.17315758     0.03100
C606        C  0.10345274  0.51096169  0.19966610    -0.04800
C607        C  0.08975498  0.55986858  0.19672900    -0.01900
C608        C  0.10007169  0.58670680  0.15804223     0.03100
C609        C  0.18357383  0.50596765  0.10163692     0.37800
C610        C  0.07164249  0.58525217  0.23534170     0.37800
C611        C  0.08072307  0.63386898  0.15157369     0.36200
C612        C  0.17354207  0.46296701  0.18839566     0.36200
N613        N  0.06516119  0.67148964  0.14682948    -0.38600
N614        N  0.20052513  0.43614368  0.20036782    -0.38600
N615        N  0.05845369  0.60615858  0.26633223    -0.38100
N616        N  0.20908676  0.49131380  0.07565008    -0.38100
C617        C  0.12170109  0.73171758  0.63684978    -0.04800
C618        C  0.10424004  0.75637608  0.67507488    -0.01900
C619        C  0.09708692  0.73199190  0.71605985     0.03100
C620        C  0.11109160  0.68422469  0.72127276    -0.04800
C621        C  0.13177332  0.66038923  0.68499136    -0.01900
C622        C  0.13743982  0.68397585  0.64311623     0.03100
C623        C  0.09654696  0.80752258  0.67499458     0.37800
C624        C  0.14929324  0.61238827  0.69168371     0.37800
C625        C  0.16322194  0.66035982  0.60801681     0.36200
C626        C  0.07588743  0.75659044  0.75375471     0.36200
N627        N  0.18396935  0.64145084  0.58020423    -0.38600
N628        N  0.05897575  0.77613642  0.78371006    -0.38600
N629        N  0.16326379  0.57421085  0.69752063    -0.38100
N630        N  0.09134342  0.84852649  0.67705900    -0.38100
C631        C  0.20745947  0.83034665  0.54652381    -0.04800
C632        C  0.24885831  0.80678307  0.53780344    -0.01900
C633        C  0.29087403  0.82531691  0.55372856     0.03100
C634        C  0.29385285  0.86856579  0.57927846    -0.04800
C635        C  0.25279498  0.89151296  0.58865128    -0.01900
C636        C  0.21118722  0.87423389  0.57154958     0.03100
C637        C  0.24830415  0.76162334  0.51417802     0.37800
C638        C  0.25272157  0.93224815  0.61873896     0.37800
C639        C  0.17226027  0.90331712  0.58090350     0.36200
C640        C  0.33078382  0.79692300  0.54699917     0.36200
N641        N  0.14257249  0.92783721  0.59052841    -0.38600
N642        N  0.36223900  0.77330200  0.54223591    -0.38600
N643        N  0.25156997  0.96441328  0.64315012    -0.38100
N644        N  0.24785873  0.72551869  0.49525200    -0.38100
C645        C  0.44077287  0.47355471  0.61185765    -0.04800
C646        C  0.46154330  0.46069899  0.65228772    -0.01900
C647        C  0.47114538  0.49658373  0.68384384     0.03100
C648        C  0.47173527  0.54539752  0.66993321    -0.04800
C649        C  0.45223908  0.55752899  0.62836875    -0.01900
C650        C  0.43080824  0.52210392  0.60363322     0.03100
C651        C  0.47271838  0.41115666  0.66134846     0.37800
C652        C  0.45411239  0.60595570  0.61066837     0.37800
C653        C  0.39763328  0.53582672  0.57087193     0.36200
C654        C  0.47089362  0.48395637  0.73116868     0.36200
N655        N  0.37026151  0.54811746  0.54613343    -0.38600
N656        N  0.46773237  0.47440754  0.76903597    -0.38600
N657        N  0.45572816  0.64455004  0.59657677    -0.38100
N658        N  0.48216839  0.37158995  0.66804368    -0.38100
C659        C  0.45544230  0.71927460  0.70514166    -0.04800
C660        C  0.48334791  0.75982214  0.70035740    -0.01900
C661        C  0.46707664  0.80548698  0.68394968     0.03100
C662        C  0.42474195  0.81161950  0.66231773    -0.04800
C663        C  0.39689820  0.77087207  0.66648960    -0.01900
C664        C  0.41073665  0.72740754  0.68903318     0.03100
C665        C  0.52974931  0.75553194  0.71258580     0.37800
C666        C  0.35139376  0.77328130  0.65092945     0.37800
C667        C  0.37569434  0.69304353  0.69640914     0.36200
C668        C  0.49076444  0.84646865  0.69993913     0.36200
N669        N  0.34513847  0.66831289  0.69923509    -0.38600
N670        N  0.51102728  0.87596216  0.71742173    -0.38600
N671        N  0.31409536  0.77263489  0.64172105    -0.38100
N672        N  0.56696075  0.75258924  0.72190906    -0.38100
C673        C  0.38347175  0.60929122  0.77113746    -0.04800
C674        C  0.35172500  0.57587006  0.75732338    -0.01900
C675        C  0.30873894  0.57801954  0.77571476     0.03100
C676        C  0.29789620  0.61419224  0.80694574    -0.04800
C677        C  0.32854412  0.65046056  0.81697462    -0.01900
C678        C  0.37158806  0.64758395  0.79970972     0.03100
C679        C  0.36291094  0.53924485  0.72470194     0.37800
C680        C  0.31663365  0.68993182  0.84640494     0.37800
C681        C  0.40365784  0.68391899  0.81187317     0.36200
C682        C  0.27574674  0.54338063  0.76228477     0.36200
N683        N  0.42877662  0.71304711  0.82196268    -0.38600
N684        N  0.24968956  0.51562308  0.75130004    -0.38600
N685        N  0.30689659  0.72181974  0.86918931    -0.38100
N686        N  0.37005492  0.50966286  0.69843417    -0.38100
C687        C  0.36341041  0.98345057  0.92647421    -0.04800
C688        C  0.40423943  0.98558540  0.90316436    -0.01900
C689        C  0.44246625  0.96547159  0.92271877     0.03100
C690        C  0.44021972  0.94568204  0.96658887    -0.04800
C691        C  0.39953104  0.94384743  0.99001095    -0.01900
C692        C  0.36093819  0.96110432  0.96951882     0.03100
C693        C  0.40706338  0.00921921  0.85963607     0.37800
C694        C  0.39732855  0.92678987  0.03635346     0.37800
C695        C  0.31914431  0.95389749  0.99327752     0.36200
C696        C  0.48424172  0.96491062  0.89791555     0.36200
N697        N  0.28718224  0.94690476  0.01419991    -0.38600
N698        N  0.51791201  0.96393149  0.87881797    -0.38600
N699        N  0.39458029  0.91391919  0.07337139    -0.38100
N700        N  0.40956582  0.02858058  0.82518520    -0.38100
C701        C  0.28141273  0.98346238  0.79379555    -0.04800
C702        C  0.28343196  0.93506477  0.77914022    -0.01900
C703        C  0.31205665  0.91933309  0.74277526     0.03100
C704        C  0.33410695  0.95203667  0.71242189    -0.04800
C705        C  0.32694056  0.00192629  0.72522124    -0.01900
C706        C  0.30388409  0.01625125  0.76607440     0.03100
C707        C  0.25662214  0.89995189  0.80291610     0.37800
C708        C  0.34146598  0.04181719  0.69834268     0.37800
C709        C  0.30454964  0.06572167  0.78088588     0.36200
C710        C  0.32173411  0.86861414  0.74184293     0.36200
N711        N  0.30519789  0.10498228  0.79303722    -0.38600
N712        N  0.32856537  0.82783915  0.74322116    -0.38600
N713        N  0.35013900  0.07805051  0.68161639    -0.38100
N714        N  0.23536962  0.87131215  0.82104348    -0.38100
C715        C  0.24962246  0.89787052  0.92373140    -0.04800
C716        C  0.28408291  0.86266056  0.92798934    -0.01900
C717        C  0.27382625  0.81652819  0.94353423     0.03100
C718        C  0.22969585  0.80440256  0.95198104    -0.04800
C719        C  0.19611492  0.83940282  0.95106493    -0.01900
C720        C  0.20518259  0.88477393  0.93384720     0.03100
C721        C  0.32959077  0.87070046  0.91395944     0.37800
C722        C  0.15209137  0.82899363  0.96858752     0.37800
C723        C  0.16781629  0.91584888  0.92269060     0.36200
C724        C  0.30871594  0.78190366  0.95310127     0.36200
N725        N  0.13803977  0.94051857  0.91385316    -0.38600
N726        N  0.33676690  0.75485863  0.96158326    -0.38600
N727        N  0.11717999  0.82200277  0.98368977    -0.38100
N728        N  0.36608228  0.87422695  0.90180326    -0.38100
C729        C  0.67552838  0.45544538  0.98074679    -0.04800
C730        C  0.71108378  0.48766775  0.97293960    -0.01900
C731        C  0.72839719  0.51737797  0.00801742     0.03100
C732        C  0.72060015  0.50790847  0.05490693    -0.04800
C733        C  0.68187077  0.48035790  0.06279343    -0.01900
C734        C  0.65683282  0.45989267  0.02564375     0.03100
C735        C  0.72780177  0.49491820  0.92784437     0.37800
C736        C  0.66656122  0.47460122  0.10874274     0.37800
C737        C  0.61093539  0.44810957  0.03389141     0.36200
C738        C  0.74788719  0.56275200  0.99520447     0.36200
N739        N  0.57372328  0.44157680  0.04168461    -0.38600
N740        N  0.76205883  0.59942596  0.98435708    -0.38600
N741        N  0.65431856  0.46997616  0.14556216    -0.38100
N742        N  0.74298373  0.50316276  0.89285223    -0.38100
C743        C  0.46566898  0.32966432  0.97724569    -0.04800
C744        C  0.50795754  0.34032713  0.99802737    -0.01900
C745        C  0.54551544  0.35568737  0.97298885     0.03100
C746        C  0.54302303  0.36842130  0.92736092    -0.04800
C747        C  0.50136917  0.35981857  0.90587777    -0.01900
C748        C  0.46364336  0.33988080  0.93021336     0.03100
C749        C  0.51492442  0.33588534  0.04641654     0.37800
C750        C  0.49773187  0.36952225  0.85815971     0.37800
C751        C  0.42338549  0.32877042  0.90636195     0.36200
C752        C  0.58886940  0.35032062  0.99325107     0.36200
N753        N  0.39130694  0.31987050  0.88693522    -0.38600
N754        N  0.62271741  0.34273573  0.00997916    -0.38600
N755        N  0.49479783  0.37654094  0.81984023    -0.38100
N756        N  0.52093380  0.33382461  0.08489470    -0.38100
C757        C  0.54284302  0.58760980  0.81466496    -0.04800
C758        C  0.52865875  0.56441627  0.85511244    -0.01900
C759        C  0.55126076  0.52298407  0.87199407     0.03100
C760        C  0.59598892  0.51163205  0.85846396    -0.04800
C761        C  0.61571685  0.54784772  0.83027623    -0.01900
C762        C  0.58889674  0.58192143  0.80564417     0.03100
C763        C  0.49554176  0.58719661  0.88392529     0.37800
C764        C  0.66334381  0.55342219  0.82828831     0.37800
C765        C  0.60897138  0.61220029  0.77163987     0.36200
C766        C  0.52625279  0.49330822  0.90292106     0.36200
N767        N  0.62484832  0.63664701  0.74451340    -0.38600
N768        N  0.50456710  0.47152980  0.92786309    -0.38600
N769        N  0.70110271  0.56036995  0.82539487    -0.38100
N770        N  0.46888923  0.60492558  0.90689709    -0.38100
C771        C  0.91783554  0.99786527  0.33906985    -0.04800
C772        C  0.91409937  0.04917064  0.33754790    -0.01900
C773        C  0.88360830  0.07381786  0.36590710     0.03100
C774        C  0.86019258  0.04953245  0.39978927    -0.04800
C775        C  0.86017778  0.99959585  0.39940428    -0.01900
C776        C  0.88970234  0.97386658  0.37096628     0.03100
C777        C  0.94267775  0.07886501  0.30995642     0.37800
C778        C  0.83137678  0.97481742  0.43121123     0.37800
C779        C  0.89053756  0.92280794  0.37713239     0.36200
C780        C  0.87904541  0.12557588  0.36361946     0.36200
N781        N  0.88775496  0.88219642  0.38348677    -0.38600
N782        N  0.87508368  0.16673173  0.36184444    -0.38600
N783        N  0.80824066  0.95486780  0.45616802    -0.38100
N784        N  0.96551409  0.10501076  0.29045979    -0.38100
C785        C  0.09189454  0.10061739  0.52604461    -0.04800
C786        C  0.12073181  0.06392789  0.53905540    -0.01900
C787        C  0.15296988  0.04638724  0.50826989     0.03100
C788        C  0.15151866  0.05945854  0.46122062    -0.04800
C789        C  0.12100041  0.09708429  0.44945008    -0.01900
C790        C  0.09561440  0.12034912  0.48270688     0.03100
C791        C  0.11754171  0.04518527  0.58465713     0.37800
C792        C  0.11601788  0.11463447  0.40366471     0.37800
C793        C  0.07160475  0.16431631  0.47201604     0.36200
C794        C  0.18900312  0.01910697  0.52763567     0.36200
N795        N  0.05320251  0.19959687  0.46324513    -0.38600
N796        N  0.21762803  0.99802377  0.54449129    -0.38600
N797        N  0.11039585  0.12869556  0.36738663    -0.38100
N798        N  0.11465772  0.03066305  0.62112714    -0.38100
C799        C  0.99300489  0.94330090  0.56098326    -0.04800
C800        C  0.98694463  0.90404221  0.59091559    -0.01900
C801        C  0.01900106  0.86723458  0.59335732     0.03100
C802        C  0.05764747  0.86883461  0.56615820    -0.04800
C803        C  0.06223490  0.90599300  0.53403330    -0.01900
C804        C  0.03041585  0.94296916  0.53141801     0.03100
C805        C  0.94613113  0.89884842  0.61702414     0.37800
C806        C  0.09792521  0.90392653  0.50061574     0.37800
C807        C  0.03591017  0.97881070  0.49631216     0.36200
C808        C  0.00959786  0.82559456  0.62107829     0.36200
N809        N  0.04056731  0.00633489  0.46747243    -0.38600
N810        N  0.00061497  0.79340404  0.64390362    -0.38600
N811        N  0.12595864  0.90230716  0.47370927    -0.38100
N812        N  0.91377851  0.89394417  0.63784471    -0.38100
C813        C  0.48057123  0.06679771  0.72236756    -0.04800
C814        C  0.47639714  0.01657039  0.73377745    -0.01900
C815        C  0.44414858  0.98635029  0.71333317     0.03100
C816        C  0.42515792  0.99758955  0.67090875    -0.04800
C817        C  0.43591765  0.04408773  0.65399879    -0.01900
C818        C  0.45794510  0.07931108  0.68166917     0.03100
C819        C  0.50974974  0.99056208  0.75899611     0.37800
C820        C  0.42258936  0.05740716  0.60891831     0.37800
C821        C  0.45824226  0.12874031  0.66713366     0.36200
C822        C  0.43294554  0.94192674  0.73602697     0.36200
N823        N  0.45777784  0.16842015  0.65596167    -0.38600
N824        N  0.42366064  0.90735209  0.75536474    -0.38600
N825        N  0.41304301  0.06909501  0.57278895    -0.38100
N826        N  0.53556297  0.96737659  0.77804178    -0.38100
C827        C  0.61174751  0.07641523  0.82498345    -0.04800
C828        C  0.62289944  0.02924664  0.81169238    -0.01900
C829        C  0.63606243  0.99534627  0.84438652     0.03100
C830        C  0.64401843  0.01087511  0.88852279    -0.04800
C831        C  0.64719935  0.06067364  0.89657933    -0.01900
C832        C  0.62924396  0.09344671  0.86545086     0.03100
C833        C  0.62385877  0.01744145  0.76422102     0.37800
C834        C  0.66663572  0.07778485  0.93804836     0.37800
C835        C  0.63149390  0.14406749  0.87395368     0.36200
C836        C  0.63880816  0.94505948  0.83344463     0.36200
N837        N  0.63600040  0.18438628  0.88059398    -0.38600
N838        N  0.64104862  0.90480471  0.82476697    -0.38600
N839        N  0.68246631  0.09191174  0.97078119    -0.38100
N840        N  0.62603727  0.00916381  0.72607115    -0.38100
C841        C  0.62796291  0.14967847  0.69374755    -0.04800
C842        C  0.66930044  0.15976735  0.71354079    -0.01900
C843        C  0.70062291  0.18501979  0.68901704     0.03100
C844        C  0.70254894  0.17965222  0.64193593    -0.04800
C845        C  0.66302766  0.16619355  0.62006388    -0.01900
C846        C  0.62417675  0.15746645  0.64626598     0.03100
C847        C  0.68399484  0.13928166  0.75580808     0.37800
C848        C  0.66149298  0.16355536  0.57136088     0.37800
C849        C  0.58140855  0.15984169  0.62434108     0.36200
C850        C  0.72583056  0.22095726  0.71233085     0.36200
N851        N  0.54761243  0.16295582  0.60617840    -0.38600
N852        N  0.74404649  0.25080773  0.73147711    -0.38600
N853        N  0.66031269  0.16097124  0.53246403    -0.38100
N854        N  0.69778620  0.12315870  0.78887668    -0.38100
C855        C  0.59193798  0.31346244  0.84832769    -0.04800
C856        C  0.59133473  0.30855712  0.80029020    -0.01900
C857        C  0.56985293  0.26921937  0.77778538     0.03100
C858        C  0.54911442  0.23118707  0.80157865    -0.04800
C859        C  0.54951431  0.23559778  0.84927657    -0.01900
C860        C  0.57240286  0.27392761  0.87194126     0.03100
C861        C  0.61701944  0.34067451  0.77274359     0.37800
C862        C  0.52760737  0.19891312  0.87572189     0.37800
C863        C  0.58378726  0.26609210  0.91854429     0.36200
C864        C  0.56898262  0.26783472  0.72896969     0.36200
N865        N  0.59423014  0.25578238  0.95474844    -0.38600
N866        N  0.56760156  0.26715737  0.69000550    -0.38600
N867        N  0.50968523  0.17001585  0.89696801    -0.38100
N868        N  0.63842563  0.36336315  0.74845270    -0.38100
C869        C  0.62446467  0.40996164  0.48802239    -0.04800
C870        C  0.64409500  0.45404572  0.47855400    -0.01900
C871        C  0.66888626  0.47666410  0.51183002     0.03100
C872        C  0.68642639  0.44966128  0.54893282    -0.04800
C873        C  0.67104103  0.40169591  0.55445237    -0.01900
C874        C  0.63902757  0.38289743  0.52494841     0.03100
C875        C  0.63462011  0.47843328  0.43628410     0.37800
C876        C  0.68480576  0.37186951  0.59187344     0.37800
C877        C  0.61894928  0.33678784  0.53401425     0.36200
C878        C  0.66813080  0.52862315  0.51074763     0.36200
N879        N  0.60299215  0.30006921  0.54148535    -0.38600
N880        N  0.66768073  0.57000406  0.50982538    -0.38600
N881        N  0.69524674  0.34612916  0.62055341    -0.38100
N882        N  0.62802256  0.49776306  0.40240314    -0.38100
C883        C  0.70427911  0.49317857  0.71214164    -0.04800
C884        C  0.73246871  0.47802027  0.74829874    -0.01900
C885        C  0.71506922  0.45584516  0.78894562     0.03100
C886        C  0.66857013  0.45302958  0.79835534    -0.04800
C887        C  0.64063245  0.46936794  0.76316660    -0.01900
C888        C  0.65754576  0.49147837  0.72279645     0.03100
C889        C  0.77989382  0.48538004  0.74510936     0.37800
C890        C  0.59386191  0.45916450  0.76705754     0.37800
C891        C  0.62576325  0.51487097  0.69336550     0.36200
C892        C  0.74581942  0.43345235  0.81994530     0.36200
N893        N  0.60053519  0.53295740  0.66934044    -0.38600
N894        N  0.77096347  0.41512622  0.84389830    -0.38600
N895        N  0.55706641  0.44862928  0.77118149    -0.38100
N896        N  0.81794812  0.49114212  0.74425819    -0.38100
C897        C  0.81879526  0.43102561  0.65254340    -0.04800
C898        C  0.86349896  0.43343184  0.63827572    -0.01900
C899        C  0.88918383  0.39103780  0.63790069     0.03100
C900        C  0.87165966  0.34949787  0.65819722    -0.04800
C901        C  0.83589214  0.35527559  0.68846459    -0.01900
C902        C  0.80567057  0.39230729  0.68028856     0.03100
C903        C  0.88221567  0.47806062  0.62280595     0.37800
C904        C  0.82945987  0.32253141  0.72593380     0.37800
C905        C  0.76038458  0.38641928  0.69566693     0.36200
C906        C  0.93243580  0.38991401  0.61627345     0.36200
N907        N  0.72445883  0.37956427  0.70801039    -0.38600
N908        N  0.96707233  0.38917539  0.59905741    -0.38600
N909        N  0.82567968  0.29710565  0.75656117    -0.38100
N910        N  0.89815203  0.51362095  0.61127135    -0.38100
C911        C  0.92133616  0.38995989  0.92754051    -0.04800
C912        C  0.93458087  0.40127904  0.88299567    -0.01900
C913        C  0.96315920  0.44032065  0.87529931     0.03100
C914        C  0.97552502  0.46949306  0.91189982    -0.04800
C915        C  0.95317986  0.46358858  0.95402756    -0.01900
C916        C  0.92401743  0.42554458  0.96046127     0.03100
C917        C  0.91879916  0.37382551  0.84515863     0.37800
C918        C  0.96287938  0.49240782  0.99324728     0.37800
C919        C  0.89956602  0.42119172  0.00265856     0.36200
C920        C  0.98322926  0.44663925  0.83111974     0.36200
N921        N  0.88098381  0.41986663  0.03689652    -0.38600
N922        N  0.99931943  0.45087330  0.79578417    -0.38600
N923        N  0.96953421  0.51229712  0.02661068    -0.38100
N924        N  0.90578106  0.35298904  0.81437399    -0.38100
C925        C  0.80776148  0.30561425  0.95430043    -0.04800
C926        C  0.78608172  0.33626663  0.98539710    -0.01900
C927        C  0.74360963  0.35890739  0.97579051     0.03100
C928        C  0.72284158  0.35735177  0.93176935    -0.04800
C929        C  0.74114841  0.31910586  0.90488970    -0.01900
C930        C  0.78325629  0.29634097  0.91444898     0.03100
C931        C  0.80585924  0.34187327  0.02949217     0.37800
C932        C  0.71385941  0.29524215  0.87203167     0.37800
C933        C  0.79983460  0.26078111  0.88301387     0.36200
C934        C  0.71821551  0.37005534  0.01575335     0.36200
N935        N  0.81105805  0.23304287  0.85636875    -0.38600
N936        N  0.70162159  0.37414977  0.05087257    -0.38600
N937        N  0.69321478  0.27425380  0.84606275    -0.38100
N938        N  0.82065246  0.34571771  0.06518150    -0.38100
C939        C  0.94092671  0.20139352  0.78128840    -0.04800
C940        C  0.91482147  0.17605183  0.81301488    -0.01900
C941        C  0.90909394  0.19405517  0.85679153     0.03100
C942        C  0.92951349  0.23725920  0.86863114    -0.04800
C943        C  0.96154121  0.25765392  0.83953317    -0.01900
C944        C  0.96615215  0.24074440  0.79514617     0.03100
C945        C  0.89403202  0.13139461  0.80055390     0.37800
C946        C  0.99082200  0.29463719  0.85564021     0.37800
C947        C  0.99520561  0.26498632  0.76342299     0.36200
C948        C  0.88247432  0.16814600  0.88965744     0.36200
N949        N  0.01842859  0.28438702  0.73816786    -0.38600
N950        N  0.86112841  0.14763651  0.91583540    -0.38600
N951        N  0.01472245  0.32384906  0.86815879    -0.38100
N952        N  0.87787048  0.09547501  0.79092573    -0.38100
C953        C  0.80970491  0.56882611  0.21652853    -0.04800
C954        C  0.85405918  0.55893307  0.23197955    -0.01900
C955        C  0.87461009  0.58584469  0.26699436     0.03100
C956        C  0.84952792  0.61121605  0.30003730    -0.04800
C957        C  0.80304254  0.61594806  0.28893498    -0.01900
C958        C  0.78384291  0.59557663  0.24814830     0.03100
C959        C  0.87873488  0.51825822  0.21418491     0.37800
C960        C  0.77463294  0.64571805  0.31655227     0.37800
C961        C  0.73694322  0.60194896  0.23931508     0.36200
C962        C  0.92227487  0.59185129  0.26469276     0.36200
N963        N  0.69935030  0.60718388  0.23274535    -0.38600
N964        N  0.96024610  0.59738287  0.26197873    -0.38600
N965        N  0.75047389  0.67064316  0.33603692    -0.38100
N966        N  0.89863117  0.48600683  0.19997267    -0.38100
C967        C  0.79231824  0.69304536  0.43144169    -0.04800
C968        C  0.78526021  0.74196469  0.44343339    -0.01900
C969        C  0.74330650  0.75973573  0.46155313     0.03100
C970        C  0.70387274  0.73181510  0.46106699    -0.04800
C971        C  0.71083623  0.68363484  0.44512045    -0.01900
C972        C  0.75436992  0.66378645  0.43597277     0.03100
C973        C  0.82109413  0.77502996  0.43656317     0.37800
C974        C  0.67439004  0.65426707  0.43124158     0.37800
C975        C  0.75924515  0.61285322  0.42756985     0.36200
C976        C  0.73988566  0.80889620  0.47633250     0.36200
N977        N  0.76285453  0.57217426  0.42132977    -0.38600
N978        N  0.73723335  0.84817458  0.48824649    -0.38600
N979        N  0.64966901  0.62761702  0.41580029    -0.38100
N980        N  0.84891633  0.80261649  0.43092616    -0.38100
C981        C  0.92858967  0.75225738  0.35372373    -0.04800
C982        C  0.94909441  0.79078492  0.37766698    -0.01900
C983        C  0.96839482  0.83159193  0.35486034     0.03100
C984        C  0.96659318  0.83751472  0.30736888    -0.04800
C985        C  0.94830319  0.79877616  0.28331808    -0.01900
C986        C  0.92870396  0.75802848  0.30569279     0.03100
C987        C  0.94725819  0.79163958  0.42641334     0.37800
C988        C  0.95168772  0.79974716  0.23459674     0.37800
C989        C  0.90758495  0.72281576  0.27786974     0.36200
C990        C  0.98899345  0.86909018  0.38088205     0.36200
N991        N  0.89028049  0.69674232  0.25365374    -0.38600
N992        N  0.00517781  0.89918532  0.40163429    -0.38600
N993        N  0.95563890  0.79948812  0.19577563    -0.38100
N994        N  0.94581564  0.79368433  0.46536263    -0.38100
C995        C  0.97993487  0.69153678  0.43105623    -0.04800
C996        C  0.01972980  0.70676168  0.40807093    -0.01900
C997        C  0.05866059  0.72399851  0.43203207     0.03100
C998        C  0.06036208  0.72540474  0.48012763    -0.04800
C999        C  0.02091710  0.70719809  0.50227552    -0.01900
C1000       C  0.98349757  0.68928977  0.47860058     0.03100
C1001       C  0.02207638  0.70164293  0.35961521     0.37800
C1002       C  0.01598921  0.70862548  0.55115152     0.37800
C1003       C  0.94901174  0.66738357  0.50563803     0.36200
C1004       C  0.09645136  0.74149913  0.40677374     0.36200
N1005       N  0.92546898  0.64915999  0.53124847    -0.38600
N1006       N  0.12660790  0.75540003  0.38627371    -0.38600
N1007       N  0.01116521  0.70808960  0.58988105    -0.38100
N1008       N  0.02439332  0.69703349  0.32091444    -0.38100
C1009       C  0.92892412  0.55694251  0.35811590    -0.04800
C1010       C  0.97554703  0.55448853  0.36519303    -0.01900
C1011       C  0.00351699  0.52135540  0.34186127     0.03100
C1012       C  0.98668776  0.48246028  0.31558373    -0.04800
C1013       C  0.93935207  0.47824865  0.31709682    -0.01900
C1014       C  0.91110130  0.51499393  0.33742429     0.03100
C1015       C  0.99643450  0.58088119  0.40108981     0.37800
C1016       C  0.91915439  0.43546835  0.29987681     0.37800
C1017       C  0.86361478  0.50756936  0.34046645     0.36200
C1018       C  0.05080238  0.52823841  0.34814445     0.36200
N1019       N  0.82570652  0.50152899  0.34355830    -0.38600
N1020       N  0.08714237  0.53614858  0.35773703    -0.38600
N1021       N  0.90208453  0.40112713  0.28727837    -0.38100
N1022       N  0.01632898  0.59675202  0.43063050    -0.38100
C1023       C  0.80715107  0.56496807  0.56633035    -0.04800
C1024       C  0.80713997  0.61558885  0.56250424    -0.01900
C1025       C  0.82723555  0.64012536  0.52456485     0.03100
C1026       C  0.84661558  0.61502183  0.48706367    -0.04800
C1027       C  0.85058985  0.56451750  0.49350421    -0.01900
C1028       C  0.83101281  0.54025719  0.53140785     0.03100
C1029       C  0.78550412  0.64285010  0.59786040     0.37800
C1030       C  0.87495315  0.53527739  0.46158333     0.37800
C1031       C  0.83285788  0.48829784  0.53181227     0.36200
C1032       C  0.83257803  0.69134337  0.52746388     0.36200
N1033       N  0.83532196  0.44700402  0.53031664    -0.38600
N1034       N  0.83799303  0.73199279  0.53164604    -0.38600
N1035       N  0.89478370  0.50867976  0.43931869    -0.38100
N1036       N  0.76838608  0.66462486  0.62628275    -0.38100
C1037       C  0.05914954  0.34352222  0.20270237    -0.04800
C1038       C  0.05028189  0.29767460  0.22115337    -0.01900
C1039       C  0.06886485  0.25482296  0.20149468     0.03100
C1040       C  0.09449951  0.25540334  0.16078797    -0.04800
C1041       C  0.10803782  0.30135125  0.14668122    -0.01900
C1042       C  0.08688312  0.34379176  0.16339302     0.03100
C1043       C  0.02490285  0.29440905  0.26278155     0.37800
C1044       C  0.15066810  0.30581895  0.12427741     0.37800
C1045       C  0.09266610  0.38755066  0.13802800     0.36200
C1046       C  0.07062406  0.21288093  0.22966016     0.36200
N1047       N  0.09661824  0.42157818  0.11614645    -0.38600
N1048       N  0.07247653  0.18149370  0.25495622    -0.38600
N1049       N  0.18577203  0.30944956  0.10843757    -0.38100
N1050       N  0.00489132  0.29150995  0.29614588    -0.38100
C1051       C  0.16537543  0.11875102  0.22193485    -0.04800
C1052       C  0.20037764  0.14137509  0.24675120    -0.01900
C1053       C  0.22343665  0.11767904  0.28377126     0.03100
C1054       C  0.20984978  0.07234384  0.30130002    -0.04800
C1055       C  0.17468433  0.05119931  0.27684877    -0.01900
C1056       C  0.14848890  0.07829929  0.24588287     0.03100
C1057       C  0.20699639  0.19232889  0.24212011     0.37800
C1058       C  0.16001671  0.00339224  0.28839280     0.37800
C1059       C  0.10271363  0.08064369  0.26060232     0.36200
C1060       C  0.26298253  0.13962192  0.30131358     0.36200
N1061       N  0.06727167  0.08196109  0.27599326    -0.38600
N1062       N  0.29542492  0.15773883  0.31274577    -0.38600
N1063       N  0.14785964  0.96554318  0.29805367    -0.38100
N1064       N  0.21260378  0.23321305  0.24038476    -0.38100
C1065       C  0.22512438  0.19771716  0.08058315    -0.04800
C1066       C  0.23438934  0.21263727  0.03454727    -0.01900
C1067       C  0.27727970  0.23181276  0.02054307     0.03100
C1068       C  0.30994437  0.24549269  0.05239189    -0.04800
C1069       C  0.29620390  0.23799083  0.09833393    -0.01900
C1070       C  0.26015342  0.20767800  0.11042037     0.03100
C1071       C  0.20061165  0.21078177  0.00034445     0.37800
C1072       C  0.31435154  0.26514110  0.13513073     0.37800
C1073       C  0.26564155  0.17930229  0.15065729     0.36200
C1074       C  0.28690543  0.23812662  0.97299768     0.36200
N1075       N  0.27415629  0.15511574  0.18111019    -0.38600
N1076       N  0.29410072  0.24292668  0.93486473    -0.38600
N1077       N  0.32620742  0.28571842  0.16651006    -0.38100
N1078       N  0.17559468  0.21155407  0.97091023    -0.38100
C1079       C  0.03259532  0.99429955  0.21217768    -0.04800
C1080       C  0.07685585  0.98386439  0.19706780    -0.01900
C1081       C  0.10346939  0.01893256  0.17285391     0.03100
C1082       C  0.08800957  0.06675591  0.16495070    -0.04800
C1083       C  0.04342908  0.07614040  0.17812581    -0.01900
C1084       C  0.01577572  0.04029340  0.19779304     0.03100
C1085       C  0.09494281  0.93650497  0.20416114     0.37800
C1086       C  0.02568419  0.12436569  0.17596751     0.37800
C1087       C  0.96869458  0.05194883  0.20171401     0.36200
C1088       C  0.14771760  0.00604888  0.15756638     0.36200
N1089       N  0.93120568  0.06155287  0.20315791    -0.38600
N1090       N  0.18300857  0.99507016  0.14554270    -0.38600
N1091       N  0.00855086  0.16154057  0.17515004    -0.38100
N1092       N  0.11012584  0.89869543  0.20896901    -0.38100
C1093       C  0.04564617  0.20321447  0.07815641    -0.04800
C1094       C  0.05141181  0.24520645  0.05194388    -0.01900
C1095       C  0.01617183  0.26658422  0.02607326     0.03100
C1096       C  0.97070249  0.25004897  0.02798452    -0.04800
C1097       C  0.96645251  0.20463183  0.04978009    -0.01900
C1098       C  0.00362351  0.18041314  0.07131050     0.03100
C1099       C  0.09612538  0.26196079  0.04374163     0.37800
C1100       C  0.92454311  0.17993220  0.04600855     0.37800
C1101       C  0.99977010  0.12955452  0.07916999     0.36200
C1102       C  0.02999217  0.30193558  0.99287220     0.36200
N1103       N  0.99573296  0.08866961  0.08357719    -0.38600
N1104       N  0.04228435  0.32992041  0.96686885    -0.38600
N1105       N  0.89116707  0.15998558  0.04281913    -0.38100
N1106       N  0.13070406  0.27666439  0.03412921    -0.38100
C1107       C  0.22504287  0.07072784  0.95521113    -0.04800
C1108       C  0.24301869  0.07444363  0.00042936    -0.01900
C1109       C  0.21775776  0.09146633  0.03810245     0.03100
C1110       C  0.17559632  0.11295159  0.03346145    -0.04800
C1111       C  0.15601211  0.10853561  0.98995938    -0.01900
C1112       C  0.17948604  0.08610538  0.95232825     0.03100
C1113       C  0.28831582  0.06119892  0.01130601     0.37800
C1114       C  0.11192129  0.12831189  0.98338320     0.37800
C1115       C  0.15553090  0.07708624  0.91121514     0.36200
C1116       C  0.23459490  0.08323862  0.08331979     0.36200
N1117       N  0.13570118  0.06943822  0.87878817    -0.38600
N1118       N  0.24839125  0.07528476  0.11886561    -0.38600
N1119       N  0.07698130  0.14486032  0.97795358    -0.38100
N1120       N  0.32450425  0.05283570  0.02192413    -0.38100
loop_ 
_geom_bond_atom_site_label_1 
_geom_bond_atom_site_label_2 
_geom_bond_distance 
_geom_bond_site_symmetry_2 
_ccdc_geom_bond_type 
C1            H2   1.107       .  S
C1            C7   1.590       .  S
C1            C6   1.605       .  S
C1            C5   1.589       .  S
C3            H4   1.095       .  S
C3            C9   1.615       .  S
C3            C8   1.583       .  S
C3           C10   1.611       .  S
C5            C8   1.408       .  D
C5         C1093   1.586       .  S
C6            C9   1.415       .  D
C6         C1082   1.565       .  S
C7           C10   1.395       .  D
C7         C1110   1.569       .  S
C8         C1040   1.566       .  S
C9         C1051   1.621       .  S
C10        C1065   1.597       .  S
C11          H12   1.109       .  S
C11          C17   1.610       .  S
C11          C16   1.619       .  S
C11          C15   1.615       .  S
C13          H14   1.101       .  S
C13          C19   1.593       .  S
C13          C18   1.588       .  S
C13          C20   1.584       .  S
C15          C18   1.418       .  D
C15         C956   1.602       .  S
C16          C19   1.404       .  D
C16         C981   1.592       .  S
C17          C20   1.396       .  D
C17         C967   1.579       .  S
C18        C1009   1.585       .  S
C19         C995   1.583       .  S
C20        C1026   1.585       .  S
C21          C22   1.542       .  S
C21          C27   1.519       .  S
C21          C25   1.609       .  S
C21        C1096   1.624   1_556  S
C22          C23   1.372       .  D
C22          H29   1.084   1_556  S
C23          C24   1.518       .  S
C23         C911   1.490       .  S
C24          H30   1.105       .  S
C24          C28   1.536       .  S
C24          C26   1.534       .  S
C25          C26   1.424       .  D
C25          H31   1.084   1_556  S
C26         C925   1.571       .  S
C27          C28   1.344       .  D
C27          H32   1.088       .  S
C28         C942   1.473       .  S
C33          C34   1.518       .  S
C33          C39   1.525       .  S
C33          C37   1.538       .  S
C33         C872   1.553       .  S
C34          C35   1.348       .  D
C34          H41   1.084       .  S
C35          C36   1.614       .  S
C35        C1023   1.568       .  S
C36          H42   1.106       .  S
C36          C40   1.617       .  S
C36          C38   1.535       .  S
C37          C38   1.367       .  D
C37          H43   1.085       .  S
C38         C897   1.477       .  S
C39          C40   1.379       .  D
C39          H44   1.081       .  S
C40         C883   1.595       .  S
C45          C46   1.537       .  S
C45          C51   1.542       .  S
C45          C49   1.608       .  S
C45         C813   1.632       .  S
C46          C47   1.357       .  D
C46          H53   1.078       .  S
C47          C48   1.529       .  S
C47         C827   1.493       .  S
C48          H54   1.103       .  S
C48          C52   1.537       .  S
C48          C50   1.531       .  S
C49          C50   1.417       .  D
C49          H55   1.084       .  S
C50         C858   1.570       .  S
C51          C52   1.365       .  D
C51          H56   1.084       .  S
C52         C841   1.503       .  S
Zr57         O58   2.442       .  S
Zr57         O59   2.417       .  S
Zr57         O60   2.347   1_655  S
Zr57         O63   2.350       .  S
Zr57         O65   2.251       .  S
Zr57         O66   2.371       .  S
Zr57         O67   2.387       .  S
Zr57         O68   2.386       .  S
O58         H114   0.990       .  S
O58         H122   0.990       .  S
O59          C79   1.280   1_545  A
O60          C81   1.270       .  A
O61         Zr71   2.474       .  S
O61          C80   1.290       .  A
O62         Zr70   2.461   1_455  S
O62          C81   1.288       .  A
O63          C80   1.269       .  A
O64         Zr72   2.402   1_565  S
O64          C79   1.277       .  A
O65         Zr70   2.281       .  S
O65         Zr72   2.274       .  S
O66         Zr71   2.398       .  S
O66         Zr72   2.376       .  S
O66         H101   0.966       .  S
O67         Zr70   2.396       .  S
O67         Zr87   2.386       .  S
O67         H104   0.965       .  S
O68         Zr71   2.397       .  S
O68         Zr87   2.411       .  S
Zr69         O94   2.438       .  S
Zr69         O88   2.391       .  S
Zr69         O96   2.391       .  S
Zr69         O84   2.392       .  S
Zr69         O75   2.386       .  S
Zr69         O76   2.392       .  S
Zr69         O77   2.370       .  S
Zr69         O78   2.380       .  S
Zr70         O89   2.436   1_655  S
Zr70         O82   2.434   1_655  S
Zr70         O83   2.445       .  S
Zr70         O76   2.408       .  S
Zr70         O77   2.384       .  S
Zr71         O73   2.435       .  S
Zr71         O95   2.437       .  S
Zr71         O97   2.458       .  S
Zr71         O75   2.400       .  S
Zr71         O78   2.404       .  S
Zr72         O98   2.435   1_545  S
Zr72         O99   2.438       .  S
Zr72         O74   2.438       .  S
Zr72         O75   2.384       .  S
Zr72         O76   2.370       .  S
O73         H110   0.990       .  S
O74         H105   0.990   1_545  S
O74         H119   0.990       .  S
O76         H102   0.965       .  S
O77         Zr87   2.372       .  S
O78         Zr87   2.377       .  S
O78         H103   0.966       .  S
C79         C799   1.496       .  S
C80         C774   1.468       .  S
C81         C785   1.463       .  S
O82         H118   0.989       .  S
O83          C85   1.286       .  A
O84          C85   1.277       .  A
C85         C939   1.467       .  S
O86         Zr87   2.435       .  S
O86         H115   0.990       .  S
Zr87         O90   2.435       .  S
Zr87         O91   2.439       .  S
Zr87         O92   2.435       .  S
O88          C93   1.278       .  A
O89         H106   0.990       .  S
O89         H121   0.990       .  S
O90         H107   0.990       .  S
O91         H111   0.990       .  S
O91         H120   0.990       .  S
O92          C93   1.284       .  A
C93         C900   1.486       .  S
O94         H113   0.990       .  S
O94         H117   0.989       .  S
O95         H109   0.990       .  S
O95         H116   0.990       .  S
O96         C100   1.279       .  A
O97         C100   1.289       .  A
O98         H108   0.990       .  S
O99         H112   0.990       .  S
C100        C844   1.494       .  S
C123        H124   1.097       .  S
C123        C129   1.633       .  S
C123        C128   1.597       .  S
C123        C127   1.600       .  S
C125        H126   1.102       .  S
C125        C131   1.609       .  S
C125        C130   1.587       .  S
C125        C132   1.591       .  S
C127        C130   1.408       .  D
C127        C886   1.579       .  S
C128        C131   1.393       .  D
C128        C855   1.599       .  S
C129        C132   1.422       .  D
C129        C928   1.622       .  S
C130        C760   1.588       .  S
C131        C746   1.555       .  S
C132        C729   1.599       .  S
C133        C134   1.539       .  S
C133        C139   1.530   1_545  S
C133        C137   1.609       .  S
C133       C1107   1.629       .  S
C134        C135   1.354       .  D
C134        H141   1.083       .  S
C135        C136   1.518   1_545  S
C135        C687   1.472   1_545  S
C136        H142   1.101       .  S
C136        C140   1.517       .  S
C136        C138   1.522       .  S
C137        C138   1.424   1_545  D
C137        H143   1.084       .  S
C138        C701   1.562       .  S
C139        C140   1.364       .  D
C139        H144   1.086       .  S
C140        C715   1.494       .  S
C145        C146   1.532       .  S
C145        C151   1.538       .  S
C145        C149   1.604       .  S
C145        C757   1.607       .  S
C146        C147   1.363       .  D
C146        H153   1.084       .  S
C147        C148   1.534       .  S
C147        C648   1.493       .  S
C148        H154   1.095       .  S
C148        C152   1.509       .  S
C148        C150   1.545       .  S
C149        C150   1.423       .  D
C149        H155   1.082       .  S
C150        C659   1.597       .  S
C151        C152   1.344       .  D
C151        H156   1.074       .  S
C152        C673   1.455       .  S
C157        C158   1.508       .  S
C157        C163   1.539       .  S
C157        C161   1.618       .  S
C157        C998   1.625       .  S
C158        C159   1.336       .  D
C158        H165   1.091       .  S
C159        C160   1.541       .  S
C159        C802   1.477       .  S
C160        H166   1.096       .  S
C160        C164   1.541       .  S
C160        C162   1.544       .  S
C161        C162   1.432       .  D
C161        H167   1.083       .  S
C162        C631   1.590       .  S
C163        C164   1.367       .  D
C163        H168   1.085       .  S
C164        C617   1.514       .  S
Zr169       O170   2.445   1_556  S
Zr169       O171   2.399   1_556  S
Zr169       O172   2.387   1_556  S
Zr169       O175   2.380       .  S
Zr169       O177   2.368       .  S
Zr169       O178   2.382       .  S
Zr169       O179   2.373       .  S
Zr169       O180   2.388       .  S
O170        H226   0.990   1_554  S
O170        H234   0.989       .  S
O171        C191   1.277   1_455  A
O172        C193   1.275       .  A
O173       Zr183   2.463       .  S
O173        C192   1.288       .  A
O174       Zr182   2.433   1_554  S
O174        C193   1.283       .  A
O175        C192   1.273       .  A
O176       Zr184   2.369   1_655  S
O176        C191   1.269   1_556  A
O177       Zr182   2.381       .  S
O177       Zr184   2.393       .  S
O178       Zr183   2.380       .  S
O178       Zr184   2.371       .  S
O178        H213   0.964       .  S
O179       Zr182   2.381       .  S
O179       Zr199   2.383       .  S
O179        H216   0.966   1_556  S
O180       Zr183   2.400       .  S
O180       Zr199   2.394       .  S
Zr181       O206   2.443       .  S
Zr181       O200   2.377       .  S
Zr181       O208   2.397       .  S
Zr181       O196   2.436       .  S
Zr181       O187   2.390       .  S
Zr181       O188   2.383       .  S
Zr181       O189   2.376       .  S
Zr181       O190   2.386       .  S
Zr182       O201   2.436   1_556  S
Zr182       O194   2.435   1_556  S
Zr182       O195   2.393       .  S
Zr182       O188   2.405       .  S
Zr182       O189   2.402       .  S
Zr183       O185   2.434       .  S
Zr183       O207   2.438       .  S
Zr183       O209   2.446       .  S
Zr183       O187   2.403       .  S
Zr183       O190   2.389       .  S
Zr184       O210   2.434   1_455  S
Zr184       O211   2.437       .  S
Zr184       O186   2.435       .  S
Zr184       O187   2.377       .  S
Zr184       O188   2.355       .  S
O185        H222   0.990       .  S
O186        H217   0.990       .  S
O186        H231   0.990   1_556  S
O188        H214   0.969       .  S
O189       Zr199   2.384       .  S
O190       Zr199   2.381       .  S
O190        H215   0.966       .  S
C191        C589   1.438       .  S
C192        C914   1.484   1_455  S
C193        C603   1.458       .  S
O194        H230   0.990       .  S
O195        C197   1.275       .  A
O196        C197   1.285       .  A
C197        C718   1.453       .  S
O198       Zr199   2.436       .  S
O198        H227   0.990       .  S
Zr199       O202   2.437       .  S
Zr199       O203   2.437       .  S
Zr199       O204   2.399       .  S
O200        C205   1.273       .  A
O201        H218   0.990       .  S
O201        H233   0.990   1_554  S
O202        H219   0.990       .  S
O203        H223   0.990       .  S
O203        H232   0.990       .  S
O204        C205   1.277       .  A
C205        C676   1.454       .  S
O206        H225   0.990       .  S
O206        H229   0.990       .  S
O207        H221   0.990       .  S
O207        H228   0.990   1_455  S
O208        C212   1.278       .  A
O209        C212   1.286       .  A
O210        H220   0.990       .  S
O211        H224   0.990       .  S
C212        C620   1.476       .  S
C235        C236   1.532       .  S
C235        C241   1.522       .  S
C235        C239   1.615       .  S
C235        C743   1.614   1_554  S
C236        C237   1.349       .  D
C236        H243   1.087   1_554  S
C237        C238   1.532       .  S
C237        C561   1.500       .  S
C238        H244   1.103       .  S
C238        C242   1.527       .  S
C238        C240   1.551       .  S
C239        C240   1.436       .  D
C239        H245   1.081   1_554  S
C240       C1068   1.589       .  S
C241        C242   1.345       .  D
C241        H246   1.088       .  S
C242        C575   1.474       .  S
C247        C248   1.528       .  S
C247        C253   1.534       .  S
C247        C251   1.519       .  S
C247        C788   1.553       .  S
C248        C249   1.362       .  D
C248        H255   1.081   1_545  S
C249        C250   1.623       .  S
C249        C533   1.566   1_545  S
C250        H256   1.108       .  S
C250        C254   1.613       .  S
C250        C252   1.524       .  S
C251        C252   1.349       .  D
C251        H257   1.090       .  S
C252        C547   1.482       .  S
C253        C254   1.378       .  D
C253        H258   1.081       .  S
C254       C1054   1.582       .  S
C259        C260   1.530       .  S
C259        C265   1.552       .  S
C259        C263   1.591       .  S
C259       C1012   1.617   1_455  S
C260        C261   1.365       .  D
C260        H267   1.080       .  S
C261        C262   1.545       .  S
C261        C606   1.524       .  S
C262        H268   1.094       .  S
C262        C266   1.513       .  S
C262        C264   1.547       .  S
C263        C264   1.411       .  D
C263        H269   1.081   1_455  S
C264       C1037   1.561       .  S
C265        C266   1.361       .  D
C265        H270   1.086       .  S
C266        C519   1.484       .  S
Zr271       O272   2.442       .  S
Zr271       O273   2.404       .  S
Zr271       O274   2.386       .  S
Zr271       O277   2.384       .  S
Zr271       O279   2.374       .  S
Zr271       O280   2.370       .  S
Zr271       O281   2.391       .  S
Zr271       O282   2.385       .  S
O272        H328   0.990       .  S
O272        H336   0.990       .  S
O273        C293   1.277       .  A
O274        C295   1.277       .  A
O275       Zr285   2.417       .  S
O275        C294   1.281       .  A
O276       Zr284   2.422       .  S
O276        C295   1.280       .  A
O277        C294   1.277       .  A
O278       Zr286   2.412       .  S
O278        C293   1.279       .  A
O279       Zr284   2.408       .  S
O279       Zr286   2.375       .  S
O280       Zr285   2.395       .  S
O280       Zr286   2.357       .  S
O280        H315   0.966       .  S
O281       Zr284   2.412       .  S
O281       Zr301   2.378       .  S
O281        H318   0.964       .  S
O282       Zr285   2.413       .  S
O282       Zr301   2.400       .  S
Zr283       O308   2.435       .  S
Zr283       O302   2.387       .  S
Zr283       O310   2.370       .  S
Zr283       O298   2.384       .  S
Zr283       O289   2.381       .  S
Zr283       O290   2.382       .  S
Zr283       O291   2.361       .  S
Zr283       O292   2.373       .  S
Zr284       O303   2.437       .  S
Zr284       O296   2.435       .  S
Zr284       O297   2.468       .  S
Zr284       O290   2.389       .  S
Zr284       O291   2.385       .  S
Zr285       O287   2.435       .  S
Zr285       O309   2.438       .  S
Zr285       O311   2.468       .  S
Zr285       O289   2.378       .  S
Zr285       O292   2.381       .  S
Zr286       O312   2.437       .  S
Zr286       O313   2.436       .  S
Zr286       O288   2.437       .  S
Zr286       O289   2.392       .  S
Zr286       O290   2.376       .  S
O287        H324   0.990       .  S
O288        H319   0.990       .  S
O288        H333   0.990       .  S
O290        H316   0.960       .  S
O291       Zr301   2.381       .  S
O292       Zr301   2.363       .  S
O292        H317   0.966       .  S
C293        C522   1.485       .  S
C294        C578   1.450       .  S
C295        C550   1.450       .  S
O296        H332   0.990       .  S
O297        C299   1.289       .  A
O298        C299   1.275       .  A
C299        C645   1.465       .  S
O300       Zr301   2.437       .  S
O300        H329   0.990       .  S
Zr301       O304   2.435       .  S
Zr301       O305   2.435       .  S
Zr301       O306   2.434       .  S
O302        C307   1.278       .  A
O303        H320   0.990       .  S
O303        H335   0.990       .  S
O304        H321   0.990       .  S
O305        H325   0.990       .  S
O305        H334   0.990       .  S
O306        C307   1.282       .  A
C307        C869   1.464       .  S
O308        H327   0.988       .  S
O308        H331   0.987       .  S
O309        H323   0.990       .  S
O309        H330   0.990       .  S
O310        C314   1.261       .  A
O311        C314   1.287       .  A
O312        H322   0.990       .  S
O313        H326   0.990       .  S
C314        C505   1.493       .  S
C337        H338   1.108       .  S
C337        C343   1.590       .  S
C337        C342   1.617       .  S
C337        C341   1.607       .  S
C339        H340   1.084       .  S
C339        C345   1.583       .  S
C339        C344   1.611       .  S
C339        C346   1.625       .  S
C341        C344   1.406       .  D
C341        C816   1.576       .  S
C342        C345   1.384       .  D
C342        C536   1.575       .  S
C343        C346   1.414       .  D
C343        C491   1.585       .  S
C344        C704   1.622       .  S
C345        C634   1.579       .  S
C346        C662   1.595       .  S
C347        C348   1.547   1_455  S
C347        C353   1.531   1_455  S
C347        C351   1.600       .  S
C347       C1079   1.620       .  S
C348        C349   1.374       .  D
C348        H355   1.080   1_665  S
C349        C350   1.552       .  S
C349        C771   1.538       .  S
C350        H356   1.101       .  S
C350        C354   1.525       .  S
C350        C352   1.542       .  S
C351        C352   1.411   1_455  D
C351        H357   1.080       .  S
C352        C984   1.563       .  S
C353        C354   1.353       .  D
C353        H358   1.085       .  S
C354        C480   1.488       .  S
C359        C360   1.522       .  S
C359        C365   1.533       .  S
C359        C363   1.618       .  S
C359        C494   1.625       .  S
C360        C361   1.349       .  D
C360        H367   1.088       .  S
C361        C362   1.523       .  S
C361        C508   1.474       .  S
C362        H368   1.108       .  S
C362        C366   1.546       .  S
C362        C364   1.546       .  S
C363        C364   1.429       .  D
C363        H369   1.083       .  S
C364        C970   1.588       .  S
C365        C366   1.363       .  D
C365        H370   1.084       .  S
C366        C463   1.509       .  S
C371        C372   1.531       .  S
C371        C377   1.505       .  S
C371        C375   1.522       .  S
C371        C592   1.539       .  S
C372        C373   1.366       .  D
C372        H379   1.075       .  S
C373        C374   1.635       .  S
C373        C732   1.595       .  S
C374        H380   1.108       .  S
C374        C378   1.651       .  S
C374        C376   1.540       .  S
C375        C376   1.349       .  D
C375        H381   1.089       .  S
C376        C449   1.487       .  S
C377        C378   1.365       .  D
C377        H382   1.077       .  S
C378        C953   1.604       .  S
Zr383       O384   2.438       .  S
Zr383       O385   2.411       .  S
Zr383       O386   2.392       .  S
Zr383       O389   2.403       .  S
Zr383       O391   2.378       .  S
Zr383       O392   2.375       .  S
Zr383       O393   2.402       .  S
Zr383       O394   2.390       .  S
O384        H440   0.990       .  S
O384        H448   0.989       .  S
O385        C405   1.282       .  A
O386        C407   1.265       .  A
O387       Zr397   2.431       .  S
O387        C406   1.284       .  A
O388       Zr396   2.476       .  S
O388        C407   1.283       .  A
O389        C406   1.280       .  A
O390       Zr398   2.391       .  S
O390        C405   1.275       .  A
O391       Zr396   2.397       .  S
O391       Zr398   2.373       .  S
O392       Zr397   2.384       .  S
O392       Zr398   2.371       .  S
O392        H427   0.966       .  S
O393       Zr396   2.431       .  S
O393       Zr413   2.371       .  S
O393        H430   0.965       .  S
O394       Zr397   2.395       .  S
O394       Zr413   2.401       .  S
Zr395       O420   2.443   1_564  S
Zr395       O414   2.370   1_554  S
Zr395       O422   2.384   1_565  S
Zr395       O410   2.373   1_554  S
Zr395       O401   2.385   1_565  S
Zr395       O402   2.385       .  S
Zr395       O403   2.375       .  S
Zr395       O404   2.371       .  S
Zr396       O415   2.434   1_554  S
Zr396       O408   2.435   1_554  S
Zr396       O409   2.486   1_554  S
Zr396       O402   2.410       .  S
Zr396       O403   2.401       .  S
Zr397       O399   2.434       .  S
Zr397       O421   2.438   1_565  S
Zr397       O423   2.437   1_565  S
Zr397       O401   2.395   1_565  S
Zr397       O404   2.393       .  S
Zr398       O424   2.438   1_565  S
Zr398       O425   2.437   1_565  S
Zr398       O400   2.437   1_565  S
Zr398       O401   2.383   1_565  S
Zr398       O402   2.367       .  S
O399        H436   0.990       .  S
O400        H431   0.990       .  S
O400        H445   0.990   1_545  S
O402        H428   0.964       .  S
O403       Zr413   2.381       .  S
O404       Zr413   2.373       .  S
O404        H429   0.966       .  S
C405        C477   1.454       .  S
C406        C466   1.496       .  S
C407        C452   1.505       .  S
O408        H444   0.990       .  S
O409        C411   1.293       .  A
O410        C411   1.275       .  A
C411        C830   1.479   1_565  S
O412       Zr413   2.435       .  S
O412        H441   0.990       .  S
Zr413       O416   2.436   1_554  S
Zr413       O417   2.434       .  S
Zr413       O418   2.419       .  S
O414        C419   1.271       .  A
O415        H432   0.990       .  S
O415        H447   0.990       .  S
O416        H433   0.990       .  S
O417        H437   0.990       .  S
O417        H446   0.989       .  S
O418        C419   1.281   1_554  A
C419        C690   1.461       .  S
O420        H439   0.990   1_556  S
O420        H443   0.991       .  S
O421        H435   0.990       .  S
O421        H442   0.990       .  S
O422        C426   1.273       .  A
O423        C426   1.282       .  A
O424        H434   0.990       .  S
O425        H438   0.990       .  S
C426        C564   1.463       .  S
C449        C450   1.412       .  A
C449        C454   1.404       .  A
C450        C451   1.422       .  A
C450        C455   1.447       .  S
C451        C452   1.421       .  A
C451        C458   1.448       .  S
C452        C453   1.419       .  A
C453        C454   1.402       .  A
C453        C456   1.446       .  S
C454        C457   1.448       .  S
C455        N462   1.157       .  T
C456        N461   1.154       .  T
C457        N459   1.156       .  T
C458        N460   1.157   1_554  T
C463        C464   1.414       .  A
C463        C468   1.427       .  A
C464        C465   1.407       .  A
C464        C469   1.446       .  S
C465        C466   1.418       .  A
C465        C472   1.456       .  S
C466        C467   1.416       .  A
C467        C468   1.413       .  A
C467        C470   1.455       .  S
C468        C471   1.450       .  S
C469        N476   1.155       .  T
C470        N475   1.157       .  T
C471        N473   1.157       .  T
C472        N474   1.157       .  T
C477        C478   1.411       .  A
C477        C482   1.399       .  A
C478        C479   1.405       .  A
C478        C483   1.454       .  S
C479        C480   1.420       .  A
C479        C486   1.451       .  S
C480        C481   1.416       .  A
C481        C482   1.396       .  A
C481        C484   1.444       .  S
C482        C485   1.456       .  S
C483        N490   1.157       .  T
C484        N489   1.156   1_565  T
C485        N487   1.157       .  T
C486        N488   1.158       .  T
C491        C492   1.404       .  A
C491        C496   1.434       .  A
C492        C493   1.420       .  A
C492        C497   1.443       .  S
C493        C494   1.448       .  A
C493        C500   1.452       .  S
C494        C495   1.429       .  A
C495        C496   1.461       .  A
C495        C498   1.443       .  S
C496        C499   1.444       .  S
C497        N504   1.157       .  T
C498        N503   1.157       .  T
C499        N501   1.158       .  T
C500        N502   1.158       .  T
C505        C506   1.416       .  A
C505        C510   1.432       .  A
C506        C507   1.411       .  A
C506        C511   1.451       .  S
C507        C508   1.410       .  A
C507        C514   1.450       .  S
C508        C509   1.407       .  A
C509        C510   1.398       .  A
C509        C512   1.459       .  S
C510        C513   1.455       .  S
C511        N518   1.157       .  T
C512        N517   1.158       .  T
C513        N515   1.158       .  T
C514        N516   1.157       .  T
C519        C520   1.409       .  A
C519        C524   1.412       .  A
C520        C521   1.412       .  A
C520        C525   1.448       .  S
C521        C522   1.419       .  A
C521        C528   1.450       .  S
C522        C523   1.414       .  A
C523        C524   1.399       .  A
C523        C526   1.456       .  S
C524        C527   1.445       .  S
C525        N532   1.156       .  T
C526        N531   1.157       .  T
C527        N529   1.156       .  T
C528        N530   1.157       .  T
C533        C534   1.423       .  A
C533        C538   1.430   1_565  A
C534        C535   1.448       .  A
C534        C539   1.449       .  S
C535        C536   1.436       .  A
C535        C542   1.444       .  S
C536        C537   1.412       .  A
C537        C538   1.432   1_565  A
C537        C540   1.436   1_565  S
C538        C541   1.447       .  S
C539        N546   1.157       .  T
C540        N545   1.151       .  T
C541        N543   1.157       .  T
C542        N544   1.157       .  T
C547        C548   1.416       .  A
C547        C552   1.411       .  A
C548        C549   1.391       .  A
C548        C553   1.450       .  S
C549        C550   1.397       .  A
C549        C556   1.453       .  S
C550        C551   1.412       .  A
C551        C552   1.409       .  A
C551        C554   1.451       .  S
C552        C555   1.449       .  S
C553        N560   1.156       .  T
C554        N559   1.157       .  T
C555        N557   1.157       .  T
C556        N558   1.157       .  T
C561        C562   1.423       .  A
C561        C566   1.418       .  A
C562        C563   1.403       .  A
C562        C567   1.447       .  S
C563        C564   1.404       .  A
C563        C570   1.457       .  S
C564        C565   1.404       .  A
C565        C566   1.412       .  A
C565        C568   1.451       .  S
C566        C569   1.446       .  S
C567        N574   1.156       .  T
C568        N573   1.157       .  T
C569        N571   1.156       .  T
C570        N572   1.157       .  T
C575        C576   1.421       .  A
C575        C580   1.410       .  A
C576        C577   1.405       .  A
C576        C581   1.452       .  S
C577        C578   1.403       .  A
C577        C584   1.451       .  S
C578        C579   1.406       .  A
C579        C580   1.395       .  A
C579        C582   1.457       .  S
C580        C583   1.447       .  S
C581        N588   1.157       .  T
C582        N587   1.157       .  T
C583        N585   1.156       .  T
C584        N586   1.157       .  T
C589        C590   1.387       .  A
C589        C594   1.397   1_554  A
C590        C591   1.397       .  A
C590        C595   1.455       .  S
C591        C592   1.444       .  A
C591        C598   1.453       .  S
C592        C593   1.429       .  A
C593        C594   1.400   1_554  A
C593        C596   1.445   1_554  S
C594        C597   1.457       .  S
C595        N602   1.157       .  T
C596        N601   1.158       .  T
C597        N599   1.157       .  T
C598        N600   1.156       .  T
C603        C604   1.404       .  A
C603        C608   1.399       .  A
C604        C605   1.406       .  A
C604        C609   1.452       .  S
C605        C606   1.422       .  A
C605        C612   1.447       .  S
C606        C607   1.428       .  A
C607        C608   1.403       .  A
C607        C610   1.450       .  S
C608        C611   1.450       .  S
C609        N616   1.157       .  T
C610        N615   1.157       .  T
C611        N613   1.157       .  T
C612        N614   1.158       .  T
C617        C618   1.424       .  A
C617        C622   1.425       .  A
C618        C619   1.408       .  A
C618        C623   1.447       .  S
C619        C620   1.406       .  A
C619        C626   1.455       .  S
C620        C621   1.406       .  A
C621        C622   1.414       .  A
C621        C624   1.452       .  S
C622        C625   1.451       .  S
C623        N630   1.158       .  T
C624        N629   1.157       .  T
C625        N627   1.157       .  T
C626        N628   1.157       .  T
C631        C632   1.427       .  A
C631        C636   1.442       .  A
C632        C633   1.453       .  A
C632        C637   1.447       .  S
C633        C634   1.434       .  A
C633        C640   1.447       .  S
C634        C635   1.414       .  A
C635        C636   1.442       .  A
C635        C638   1.450       .  S
C636        C639   1.446       .  S
C637        N644   1.157       .  T
C638        N643   1.157       .  T
C639        N641   1.156       .  T
C640        N642   1.158       .  T
C645        C646   1.401       .  A
C645        C650   1.409       .  A
C646        C647   1.408       .  A
C646        C651   1.448       .  S
C647        C648   1.425       .  A
C647        C654   1.447       .  S
C648        C649   1.409       .  A
C649        C650   1.400       .  A
C649        C652   1.452       .  S
C650        C653   1.447       .  S
C651        N658   1.157       .  T
C652        N657   1.158       .  T
C653        N655   1.157       .  T
C654        N656   1.157       .  T
C659        C660   1.423       .  A
C659        C664   1.447       .  A
C660        C661   1.448       .  A
C660        C665   1.449       .  S
C661        C662   1.440       .  A
C661        C668   1.438       .  S
C662        C663   1.424       .  A
C663        C664   1.445       .  A
C663        C666   1.449       .  S
C664        C667   1.447       .  S
C665        N672   1.158       .  T
C666        N671   1.157       .  T
C667        N669   1.157       .  T
C668        N670   1.156       .  T
C673        C674   1.406       .  A
C673        C678   1.410       .  A
C674        C675   1.401       .  A
C674        C679   1.448       .  S
C675        C676   1.409       .  A
C675        C682   1.452       .  S
C676        C677   1.410       .  A
C677        C678   1.391       .  A
C677        C680   1.451       .  S
C678        C681   1.455       .  S
C679        N686   1.156       .  T
C680        N685   1.155       .  T
C681        N683   1.157       .  T
C682        N684   1.157       .  T
C687        C688   1.407       .  A
C687        C692   1.421       .  A
C688        C689   1.405       .  A
C688        C693   1.451   1_565  S
C689        C690   1.414       .  A
C689        C696   1.451       .  S
C690        C691   1.404       .  A
C691        C692   1.397       .  A
C691        C694   1.455   1_556  S
C692        C695   1.452       .  S
C693        N700   1.157       .  T
C694        N699   1.157       .  T
C695        N697   1.158   1_556  T
C696        N698   1.157       .  T
C701        C702   1.424       .  A
C701        C706   1.404   1_565  A
C702        C703   1.443       .  A
C702        C707   1.453       .  S
C703        C704   1.443       .  A
C703        C710   1.446       .  S
C704        C705   1.461   1_565  A
C705        C706   1.448       .  A
C705        C708   1.438       .  S
C706        C709   1.454       .  S
C707        N714   1.157       .  T
C708        N713   1.158       .  T
C709        N711   1.157       .  T
C710        N712   1.158       .  T
C715        C716   1.430       .  A
C715        C720   1.419       .  A
C716        C717   1.405       .  A
C716        C721   1.447       .  S
C717        C718   1.394       .  A
C717        C724   1.452       .  S
C718        C719   1.402       .  A
C719        C720   1.395       .  A
C719        C722   1.450       .  S
C720        C723   1.455       .  S
C721        N728   1.158       .  T
C722        N727   1.157       .  T
C723        N725   1.158       .  T
C724        N726   1.157       .  T
C729        C730   1.421       .  A
C729        C734   1.447   1_556  A
C730        C731   1.437   1_556  A
C730        C735   1.440       .  S
C731        C732   1.433       .  A
C731        C738   1.451   1_554  S
C732        C733   1.420       .  A
C733        C734   1.461       .  A
C733        C736   1.444       .  S
C734        C737   1.441       .  S
C735        N742   1.154       .  T
C736        N741   1.157       .  T
C737        N739   1.157       .  T
C738        N740   1.158       .  T
C743        C744   1.452       .  A
C743        C748   1.425       .  A
C744        C745   1.416       .  A
C744        C749   1.457   1_556  S
C745        C746   1.401       .  A
C745        C752   1.447       .  S
C746        C747   1.433       .  A
C747        C748   1.454       .  A
C747        C750   1.445       .  S
C748        C751   1.444       .  S
C749        N756   1.158       .  T
C750        N755   1.157       .  T
C751        N753   1.157       .  T
C752        N754   1.154   1_556  T
C757        C758   1.426       .  A
C757        C762   1.417       .  A
C758        C759   1.430       .  A
C758        C763   1.452       .  S
C759        C760   1.435       .  A
C759        C766   1.446       .  S
C760        C761   1.440       .  A
C761        C762   1.444       .  A
C761        C764   1.443       .  S
C762        C765   1.447       .  S
C763        N770   1.158       .  T
C764        N769   1.157       .  T
C765        N767   1.157       .  T
C766        N768   1.158       .  T
C771        C772   1.439   1_565  A
C771        C776   1.433       .  A
C772        C773   1.416       .  A
C772        C777   1.447       .  S
C773        C774   1.400       .  A
C773        C780   1.454       .  S
C774        C775   1.397   1_545  A
C775        C776   1.414       .  A
C775        C778   1.454       .  S
C776        C779   1.439       .  S
C777        N784   1.158       .  T
C778        N783   1.157       .  T
C779        N781   1.154       .  T
C780        N782   1.157       .  T
C785        C786   1.394       .  A
C785        C790   1.401       .  A
C786        C787   1.413       .  A
C786        C791   1.452       .  S
C787        C788   1.443       .  A
C787        C794   1.443       .  S
C788        C789   1.435       .  A
C789        C790   1.402       .  A
C789        C792   1.451       .  S
C790        C793   1.457       .  S
C791        N798   1.157       .  T
C792        N797   1.158       .  T
C793        N795   1.157       .  T
C794        N796   1.156   1_545  T
C799        C800   1.422       .  A
C799        C804   1.421   1_655  A
C800        C801   1.407   1_655  A
C800        C805   1.455       .  S
C801        C802   1.411       .  A
C801        C808   1.452       .  S
C802        C803   1.415       .  A
C803        C804   1.406       .  A
C803        C806   1.457       .  S
C804        C807   1.452       .  S
C805        N812   1.158       .  T
C806        N811   1.157       .  T
C807        N809   1.157   1_565  T
C808        N810   1.157       .  T
C813        C814   1.450       .  A
C813        C818   1.432       .  A
C814        C815   1.432   1_545  A
C814        C819   1.447   1_545  S
C815        C816   1.420       .  A
C815        C822   1.452       .  S
C816        C817   1.431   1_565  A
C817        C818   1.452       .  A
C817        C820   1.446       .  S
C818        C821   1.447       .  S
C819        N826   1.157       .  T
C820        N825   1.157       .  T
C821        N823   1.157       .  T
C822        N824   1.158       .  T
C827        C828   1.415       .  A
C827        C832   1.401       .  A
C828        C829   1.411   1_545  A
C828        C833   1.448       .  S
C829        C830   1.404   1_565  A
C829        C836   1.446       .  S
C830        C831   1.418       .  A
C831        C832   1.407       .  A
C831        C834   1.451       .  S
C832        C835   1.441       .  S
C833        N840   1.157       .  T
C834        N839   1.157       .  T
C835        N837   1.155       .  T
C836        N838   1.157       .  T
C841        C842   1.411       .  A
C841        C846   1.430       .  A
C842        C843   1.383       .  A
C842        C847   1.448       .  S
C843        C844   1.406       .  A
C843        C850   1.445       .  S
C844        C845   1.413       .  A
C845        C846   1.421       .  A
C845        C848   1.448       .  S
C846        C849   1.447       .  S
C847        N854   1.157       .  T
C848        N853   1.157       .  T
C849        N851   1.157       .  T
C850        N852   1.156       .  T
C855        C856   1.432       .  A
C855        C860   1.434       .  A
C856        C857   1.448       .  A
C856        C861   1.438       .  S
C857        C858   1.420       .  A
C857        C864   1.449       .  S
C858        C859   1.421       .  A
C859        C860   1.449       .  A
C859        C862   1.449       .  S
C860        C863   1.443       .  S
C861        N868   1.155       .  T
C862        N867   1.157       .  T
C863        N865   1.156       .  T
C864        N866   1.157       .  T
C869        C870   1.398       .  A
C869        C874   1.401       .  A
C870        C871   1.398       .  A
C870        C875   1.455       .  S
C871        C872   1.434       .  A
C871        C878   1.454       .  S
C872        C873   1.431       .  A
C873        C874   1.412       .  A
C873        C876   1.448       .  S
C874        C877   1.452       .  S
C875        N882   1.157       .  T
C876        N881   1.156       .  T
C877        N879   1.157       .  T
C878        N880   1.158       .  T
C883        C884   1.434       .  A
C883        C888   1.440       .  A
C884        C885   1.450       .  A
C884        C889   1.446       .  S
C885        C886   1.427       .  A
C885        C892   1.447       .  S
C886        C887   1.418       .  A
C887        C888   1.437       .  A
C887        C890   1.442       .  S
C888        C891   1.451       .  S
C889        N896   1.158       .  T
C890        N895   1.153       .  T
C891        N893   1.158       .  T
C892        N894   1.158       .  T
C897        C898   1.409       .  A
C897        C902   1.415       .  A
C898        C899   1.410       .  A
C898        C903   1.445       .  S
C899        C900   1.411       .  A
C899        C906   1.447       .  S
C900        C901   1.405       .  A
C901        C902   1.395       .  A
C901        C904   1.451       .  S
C902        C905   1.444       .  S
C903        N910   1.157       .  T
C904        N909   1.157       .  T
C905        N907   1.156       .  T
C906        N908   1.157       .  T
C911        C912   1.413       .  A
C911        C916   1.400       .  A
C912        C913   1.412       .  A
C912        C917   1.448       .  S
C913        C914   1.414       .  A
C913        C920   1.450       .  S
C914        C915   1.424       .  A
C915        C916   1.396       .  A
C915        C918   1.451       .  S
C916        C919   1.452   1_556  S
C917        N924   1.158       .  T
C918        N923   1.157   1_556  T
C919        N921   1.156       .  T
C920        N922   1.157       .  T
C925        C926   1.414       .  A
C925        C930   1.424       .  A
C926        C927   1.451       .  A
C926        C931   1.451   1_556  S
C927        C928   1.453       .  A
C927        C934   1.439   1_556  S
C928        C929   1.440       .  A
C929        C930   1.443       .  A
C929        C932   1.448       .  S
C930        C933   1.449       .  S
C931        N938   1.157       .  T
C932        N937   1.158       .  T
C933        N935   1.156       .  T
C934        N936   1.157       .  T
C939        C940   1.413       .  A
C939        C944   1.406       .  A
C940        C941   1.403       .  A
C940        C945   1.452       .  S
C941        C942   1.407       .  A
C941        C948   1.452       .  S
C942        C943   1.411       .  A
C943        C944   1.406       .  A
C943        C946   1.449       .  S
C944        C947   1.450       .  S
C945        N952   1.157       .  T
C946        N951   1.157   1_655  T
C947        N949   1.157   1_655  T
C948        N950   1.157       .  T
C953        C954   1.439       .  A
C953        C958   1.424       .  A
C954        C955   1.432       .  A
C954        C959   1.452       .  S
C955        C956   1.421       .  A
C955        C962   1.446       .  S
C956        C957   1.444       .  A
C957        C958   1.464       .  A
C957        C960   1.441       .  S
C958        C961   1.447       .  S
C959        N966   1.157       .  T
C960        N965   1.156       .  T
C961        N963   1.157       .  T
C962        N964   1.156       .  T
C967        C968   1.429       .  A
C967        C972   1.415       .  A
C968        C969   1.453       .  A
C968        C973   1.439       .  S
C969        C970   1.426       .  A
C969        C976   1.447       .  S
C970        C971   1.443       .  A
C971        C972   1.443       .  A
C971        C974   1.439       .  S
C972        C975   1.453       .  S
C973        N980   1.154       .  T
C974        N979   1.156       .  T
C975        N977   1.157       .  T
C976        N978   1.157       .  T
C981        C982   1.439       .  A
C981        C986   1.433       .  A
C982        C983   1.448       .  A
C982        C987   1.447       .  S
C983        C984   1.419       .  A
C983        C990   1.450       .  S
C984        C985   1.417       .  A
C985        C986   1.445       .  A
C985        C988   1.448       .  S
C986        C989   1.442       .  S
C987        N994   1.158       .  T
C988        N993   1.157       .  T
C989        N991   1.155       .  T
C990        N992   1.157   1_655  T
C995        C996   1.440   1_655  A
C995       C1000   1.417       .  A
C996        C997   1.461       .  A
C996       C1001   1.446       .  S
C997        C998   1.429       .  A
C997       C1004   1.445       .  S
C998        C999   1.447       .  A
C999       C1000   1.427   1_455  A
C999       C1002   1.457       .  S
C1000      C1003   1.445       .  S
C1001      N1008   1.157       .  T
C1002      N1007   1.157       .  T
C1003      N1005   1.155       .  T
C1004      N1006   1.157       .  T
C1009      C1010   1.421       .  A
C1009      C1014   1.436       .  A
C1010      C1011   1.424   1_655  A
C1010      C1015   1.448       .  S
C1011      C1012   1.438   1_455  A
C1011      C1018   1.451       .  S
C1012      C1013   1.430       .  A
C1013      C1014   1.458       .  A
C1013      C1016   1.443       .  S
C1014      C1017   1.447       .  S
C1015      N1022   1.157   1_655  T
C1016      N1021   1.157       .  T
C1017      N1019   1.157       .  T
C1018      N1020   1.155       .  T
C1023      C1024   1.420       .  A
C1023      C1028   1.432       .  A
C1024      C1025   1.447       .  A
C1024      C1029   1.446       .  S
C1025      C1026   1.435       .  A
C1025      C1032   1.446       .  S
C1026      C1027   1.429       .  A
C1027      C1028   1.436       .  A
C1027      C1030   1.445       .  S
C1028      C1031   1.454       .  S
C1029      N1036   1.157       .  T
C1030      N1035   1.156       .  T
C1031      N1033   1.158       .  T
C1032      N1034   1.157       .  T
C1037      C1038   1.419       .  A
C1037      C1042   1.429       .  A
C1038      C1039   1.442       .  A
C1038      C1043   1.450       .  S
C1039      C1040   1.428       .  A
C1039      C1046   1.439       .  S
C1040      C1041   1.412       .  A
C1041      C1042   1.431       .  A
C1041      C1044   1.446       .  S
C1042      C1045   1.446       .  S
C1043      N1050   1.157       .  T
C1044      N1049   1.158       .  T
C1045      N1047   1.157       .  T
C1046      N1048   1.154       .  T
C1051      C1052   1.441       .  A
C1051      C1056   1.429       .  A
C1052      C1053   1.458       .  A
C1052      C1057   1.447       .  S
C1053      C1054   1.430       .  A
C1053      C1060   1.445       .  S
C1054      C1055   1.421       .  A
C1055      C1056   1.427       .  A
C1055      C1058   1.451       .  S
C1056      C1059   1.443       .  S
C1057      N1064   1.158       .  T
C1058      N1063   1.157   1_545  T
C1059      N1061   1.157       .  T
C1060      N1062   1.157       .  T
C1065      C1066   1.452       .  A
C1065      C1070   1.412       .  A
C1066      C1067   1.458       .  A
C1066      C1071   1.443       .  S
C1067      C1068   1.424       .  A
C1067      C1074   1.448   1_554  S
C1068      C1069   1.436       .  A
C1069      C1070   1.425       .  A
C1069      C1072   1.445       .  S
C1070      C1073   1.441       .  S
C1071      N1078   1.157   1_554  T
C1072      N1077   1.156       .  T
C1073      N1075   1.156       .  T
C1074      N1076   1.158       .  T
C1079      C1080   1.430       .  A
C1079      C1084   1.443   1_565  A
C1080      C1081   1.455   1_565  A
C1080      C1085   1.443       .  S
C1081      C1082   1.432       .  A
C1081      C1088   1.446       .  S
C1082      C1083   1.417       .  A
C1083      C1084   1.428       .  A
C1083      C1086   1.448       .  S
C1084      C1087   1.455   1_455  S
C1085      N1092   1.157       .  T
C1086      N1091   1.157       .  T
C1087      N1089   1.158       .  T
C1088      N1090   1.157   1_545  T
C1093      C1094   1.417       .  A
C1093      C1098   1.437       .  A
C1094      C1095   1.439       .  A
C1094      C1099   1.447       .  S
C1095      C1096   1.448   1_455  A
C1095      C1102   1.454   1_554  S
C1096      C1097   1.430       .  A
C1097      C1098   1.454   1_655  A
C1097      C1100   1.448       .  S
C1098      C1101   1.446   1_455  S
C1099      N1106   1.155       .  T
C1100      N1105   1.157       .  T
C1101      N1103   1.158       .  T
C1102      N1104   1.158       .  T
C1107      C1108   1.455   1_556  A
C1107      C1112   1.436       .  A
C1108      C1109   1.428       .  A
C1108      C1113   1.448       .  S
C1109      C1110   1.407       .  A
C1109      C1116   1.455       .  S
C1110      C1111   1.429   1_554  A
C1111      C1112   1.457       .  A
C1111      C1114   1.448       .  S
C1112      C1115   1.446       .  S
C1113      N1120   1.158       .  T
C1114      N1119   1.157       .  T
C1115      N1117   1.157       .  T
C1116      N1118   1.157       .  T
