geometry optimzed in LAMMPS
_audit_creation_date              2020-11-30 
_audit_creation_method            'lammps2cif' 
_symmetry_space_group_name_H-M    'P1' 
_symmetry_Int_Tables_number       1 
_symmetry_cell_setting            triclinic 
loop_ 
_symmetry_equiv_pos_as_xyz 
  x,y,z 
_cell_length_a                    26.24168374 
_cell_length_b                    26.012448127312137 
_cell_length_c                    25.871542335143562 
_cell_angle_alpha                 89.63282963415811 
_cell_angle_beta                  90.0603810468558 
_cell_angle_gamma                 91.49868770878818 
loop_ 
_atom_site_label 
_atom_site_type_symbol 
_atom_site_fract_x 
_atom_site_fract_y 
_atom_site_fract_z 
_atom_site_charge 
O1          O  0.04723643  0.19744878  0.11051654    -0.86000
O2          O  0.04213415  0.11057110  0.17182471    -0.83100
C3          C  0.05450368  0.06973637  0.19426749     0.97500
O4          O  0.10164756  0.05914161  0.19843992    -0.83100
O5          O  0.14586033  0.05192269  0.09935722    -0.85700
C6          C  0.17290882  0.06085255  0.06002850     1.02000
O7          O  0.18198291  0.10780245  0.04766469    -0.78500
O8          O  0.08702767  0.16004505  0.04717868    -0.78700
C9          C  0.04873353  0.18368339  0.06332559     1.01900
O10         O  0.12510733  0.23839164  0.18073804    -0.86000
O11         O  0.11516036  0.15516798  0.24476161    -0.83100
C12         C  0.16087764  0.14505103  0.25766732     0.97500
O13         O  0.18908469  0.12609430  0.22471023    -0.83100
O14         O  0.23542421  0.11354684  0.13364141    -0.85700
C15         C  0.25207111  0.15856711  0.12138691     1.01900
O16         O  0.22203336  0.19254822  0.10668433    -0.78500
O17         O  0.13462019  0.24866423  0.09759431    -0.78700
C18         C  0.13130554  0.26799525  0.14264315     1.01900
Cr19       Cr  0.08587494  0.17336628  0.17423588     1.93700
Cr20       Cr  0.16534508  0.09106581  0.16196326     1.93200
Cr21       Cr  0.15449043  0.17476005  0.07881126     1.39100
O22         O  0.13497547  0.14609890  0.13832756    -1.23800
O23         O  0.97757443  0.71337016  0.40005886    -0.86000
O24         O  0.98921817  0.61902338  0.34596587    -0.83100
C25         C  0.97786273  0.57824850  0.32178230     0.97500
O26         O  0.93159525  0.56674703  0.31239320    -0.83100
O27         O  0.88862737  0.55723255  0.40828212    -0.85700
C28         C  0.86021744  0.56356197  0.44637353     1.02000
O29         O  0.84601951  0.60919097  0.45614425    -0.78500
O30         O  0.93203083  0.67473753  0.46063169    -0.78700
C31         C  0.96879943  0.70393493  0.44788557     1.01900
O32         O  0.90846685  0.74057620  0.31749858    -0.86000
O33         O  0.92385597  0.65352425  0.26353581    -0.83100
C34         C  0.87936894  0.63923498  0.24850856     0.97500
O35         O  0.84593674  0.62642487  0.28116981    -0.83100
O36         O  0.79574058  0.60377639  0.37234241    -0.85700
C37         C  0.77579986  0.64651312  0.38178318     1.01900
O38         O  0.80400605  0.68551932  0.38612351    -0.78500
O39         O  0.88253613  0.75208201  0.39701858    -0.78700
C40         C  0.89159530  0.76935721  0.35162274     1.01900
Cr41       Cr  0.94671362  0.67946815  0.33446838     1.93700
Cr42       Cr  0.86737815  0.59230522  0.34492899     1.93200
Cr43       Cr  0.86829978  0.67845303  0.42186481     1.39100
O44         O  0.89474593  0.65014000  0.36731885    -1.23800
C45         C  0.95957840  0.29835659  0.89292019    -0.03100
C46         C  0.73788327  0.38814287  0.53634485    -0.03100
C47         C  0.63087804  0.04053437  0.79421838    -0.03100
O48         O  0.96427050  0.03193765  0.63317124    -0.86000
O49         O  0.01530820  0.11981398  0.64074275    -0.83100
C50         C  0.02727444  0.12914038  0.59355390     0.97500
O51         O  0.99518068  0.14623038  0.56278477    -0.83100
O52         O  0.90683364  0.14166349  0.50882065    -0.85700
C53         C  0.89710156  0.09464688  0.49561108     1.02000
O54         O  0.88539112  0.06191284  0.52930155    -0.78500
O55         O  0.88506074  0.00971131  0.61801344    -0.78700
C56         C  0.93214654  0.99777306  0.62270870     1.01900
O57         O  0.88170990  0.05760427  0.70346495    -0.86000
O58         O  0.93103297  0.15419871  0.70520296    -0.83100
C59         C  0.94736905  0.19782791  0.69137301     0.97500
O60         O  0.95893230  0.20729897  0.64451088    -0.83100
O61         O  0.86642593  0.19943079  0.60160655    -0.85700
C62         C  0.83081893  0.18994130  0.57158836     1.01900
O63         O  0.82210540  0.14309095  0.56014415    -0.78500
O64         O  0.82972581  0.10220229  0.65916660    -0.78700
C65         C  0.83586889  0.07102208  0.69496301     1.01900
Cr66       Cr  0.94604785  0.09269035  0.66778034     1.93700
Cr67       Cr  0.93044569  0.17068635  0.58092956     1.93200
Cr68       Cr  0.85787817  0.08087511  0.59396803     1.39100
O69         O  0.91360080  0.11356501  0.61245790    -1.23800
O70         O  0.60241330  0.47261051  0.81420229    -0.86000
O71         O  0.64929129  0.47704575  0.90936826    -0.83100
C72         C  0.67346181  0.46637751  0.94963893     0.97500
O73         O  0.68480099  0.41939485  0.95751729    -0.83100
O74         O  0.59455217  0.35997524  0.95899911    -0.85700
C75         C  0.55591548  0.33394430  0.94511925     1.02000
O76         O  0.54806519  0.32652337  0.89703737    -0.78500
O77         O  0.54271264  0.42191895  0.84669138    -0.78700
C78         C  0.55564622  0.46386657  0.82523750     1.01900
O79         O  0.68517489  0.40906445  0.78041200    -0.86000
O80         O  0.73746353  0.42364766  0.87268978    -0.83100
C81         C  0.75439377  0.37948526  0.88375904     0.97500
O82         O  0.72361622  0.34210698  0.88748726    -0.83100
O83         O  0.63782324  0.28049141  0.89616262    -0.85700
C84         C  0.62927066  0.26538868  0.85001754     1.01900
O85         O  0.61831017  0.29763292  0.81600483    -0.78500
O86         O  0.60631256  0.38521509  0.76247251    -0.78700
C87         C  0.65238049  0.39299413  0.74841754     1.01900
Cr88       Cr  0.66640791  0.44183340  0.84538098     1.93700
Cr89       Cr  0.65855289  0.35280765  0.92156514     1.93200
Cr90       Cr  0.58211573  0.35992118  0.83322222     1.39100
O91         O  0.63527644  0.38503645  0.86701867    -1.23800
C92         C  0.29019590  0.88214731  0.97153701    -0.03100
C93         C  0.37338339  0.53531926  0.71895067    -0.03100
C94         C  0.03708692  0.79995122  0.64413255    -0.03100
O95         O  0.11220337  0.55021018  0.99525253    -0.86000
O96         O  0.12999290  0.49735070  0.90816332    -0.83100
C97         C  0.08563629  0.48028302  0.89714054     0.97500
O98         O  0.05035151  0.51044348  0.88871700    -0.83100
O99         O  0.99216678  0.59437949  0.88017699    -0.85700
C100        C  0.97672189  0.60127775  0.92643111     1.02000
O101        O  0.00829046  0.61302405  0.96132981    -0.78500
O102        O  0.10025578  0.62943027  0.01462955    -0.78700
C103        C  0.11172819  0.58413288  0.02866376     1.01900
O104        O  0.18281885  0.63626294  0.96195742    -0.86000
O105        O  0.18906245  0.58354538  0.87133520    -0.83100
C106        C  0.17681350  0.56287444  0.82927918     0.93900
O107        O  0.13004459  0.55133085  0.81957274    -0.83100
O108        O  0.07442546  0.64070266  0.81851680    -0.85700
C109        C  0.04915683  0.67839972  0.83262743     1.01900
O110        O  0.03837247  0.68418712  0.88026468    -0.78500
O111        O  0.13204623  0.69316172  0.92803362    -0.78700
C112        C  0.17344099  0.68285697  0.94965162     1.01900
Cr113      Cr  0.14998043  0.56900266  0.93321990     1.93700
Cr114      Cr  0.06402359  0.57575678  0.85499724     1.93200
Cr115      Cr  0.07116332  0.65152888  0.94391574     1.39100
O116        O  0.09572196  0.59946022  0.90965325    -1.23800
C117        C  0.47453479  0.21778207  0.12868660    -0.03100
C118        C  0.22009017  0.13353551  0.48010787    -0.03100
C119        C  0.15507199  0.48616266  0.22116656    -0.03100
O120        O  0.50167929  0.38374663  0.46353365    -0.86000
O121        O  0.41331951  0.37121673  0.51705157    -0.83100
C122        C  0.40429680  0.41675671  0.53323132     0.97500
O123        O  0.40129081  0.45219542  0.50113624    -0.83100
O124        O  0.38738292  0.50952604  0.41684508    -0.85700
C125        C  0.43351969  0.52523495  0.41510374     1.02000
O126        O  0.46761331  0.49523663  0.40146628    -0.78500
O127        O  0.52235944  0.40735495  0.38544251    -0.78700
C128        C  0.53538300  0.39361597  0.43087197     1.01900
O129        O  0.46623172  0.31887025  0.37476293    -0.86000
O130        O  0.37562511  0.31395053  0.42453118    -0.83100
C131        C  0.33808952  0.32306214  0.45208644     0.97500
O132        O  0.33096077  0.36941519  0.46596588    -0.83100
O133        O  0.32967231  0.42425977  0.37484813    -0.85700
C134        C  0.34313868  0.44559032  0.33331577     1.01900
O135        O  0.38905422  0.46230305  0.32735630    -0.78500
O136        O  0.44082389  0.37580484  0.31862598    -0.78700
C137        C  0.45568419  0.33161490  0.32788727     1.01900
Cr138      Cr  0.43852974  0.35015318  0.44314382     1.93700
Cr139      Cr  0.36527964  0.43675477  0.43796298     1.93200
Cr140      Cr  0.45299985  0.43398565  0.36168987     1.39100
O141        O  0.41864121  0.40644879  0.41337270    -1.23800
O142        O  0.32580856  0.90331179  0.53409106    -0.86000
O143        O  0.42146449  0.85358080  0.53087802    -0.83100
C144        C  0.46076746  0.83074468  0.54605830     0.97500
O145        O  0.46346476  0.81618624  0.59333565    -0.83100
O146        O  0.46942253  0.89977173  0.65845913    -0.85700
C147        C  0.45649877  0.94201177  0.67713590     1.02000
O148        O  0.40979583  0.95328594  0.67859786    -0.78500
O149        O  0.36689823  0.95710127  0.58260366    -0.78700
C150        C  0.33774865  0.94956719  0.54523949     1.01900
O151        O  0.28897726  0.81799087  0.59465727    -0.86000
O152        O  0.37759484  0.76406766  0.58043224    -0.83100
C153        C  0.38285958  0.74341811  0.62462599     0.97500
O154        O  0.38742991  0.77147849  0.66376009    -0.83100
O155        O  0.39685808  0.85369331  0.73052573    -0.85700
C156        C  0.35472882  0.87194254  0.74566492     1.01900
O157        O  0.32554006  0.89074649  0.71263830    -0.78500
O158        O  0.27566903  0.89691938  0.62121263    -0.78700
C159        C  0.25923500  0.85131530  0.61127986     1.01900
Cr160      Cr  0.35528497  0.83716417  0.56426544     1.93700
Cr161      Cr  0.42560600  0.83712988  0.65892789     1.93200
Cr162      Cr  0.34667859  0.92070350  0.64635182     1.39100
O163        O  0.37590184  0.86490621  0.62389411    -1.23800
C164        C  0.86425519  0.98959085  0.29565661    -0.03100
C165        C  0.56133387  0.70437080  0.38914811    -0.03100
C166        C  0.79636460  0.62613205  0.04278188    -0.03100
O167        O  0.51468187  0.86942767  0.05665785    -0.86000
O168        O  0.60063477  0.87068784  0.00079072    -0.83100
C169        C  0.61088538  0.91726484  0.98730775     0.97500
O170        O  0.62974426  0.94862381  0.01897950    -0.83100
O171        O  0.63049289  0.00710163  0.10656414    -0.85700
C172        C  0.58409571  0.01950159  0.11305976     1.02000
O173        O  0.55102031  0.98420454  0.11477394    -0.78500
O174        O  0.49670533  0.89528612  0.13429085    -0.78700
C175        C  0.48259772  0.88215015  0.08937103     1.01900
O176        O  0.55834112  0.80666265  0.14149532    -0.86000
O177        O  0.64616085  0.80885328  0.08449223    -0.83100
C178        C  0.68906020  0.82434521  0.06868739     0.97500
O179        O  0.69702109  0.87219602  0.05961635    -0.83100
O180        O  0.68934795  0.92428452  0.15285936    -0.85700
C181        C  0.67442512  0.95311607  0.18804187     1.01900
O182        O  0.62683869  0.96065165  0.19288549    -0.78500
O183        O  0.57663263  0.86519278  0.20050138    -0.78700
C184        C  0.56588914  0.81927331  0.18892486     1.01900
Cr185      Cr  0.58162329  0.84304939  0.07343661     1.93700
Cr186      Cr  0.65770209  0.93496825  0.08584283     1.93200
Cr187      Cr  0.56563047  0.92446094  0.15687411     1.39100
O188        O  0.60205923  0.89979589  0.10561803    -1.23800
C189        C  0.75449006  0.70022285  0.09767868    -0.02500
C190        C  0.77989567  0.68586328  0.05043718     0.07200
C191        C  0.78683476  0.72907407  0.01492143    -0.02600
C192        C  0.75552821  0.77323617  0.01820128    -0.02600
C193        C  0.72890109  0.78379952  0.06377431     0.07300
C194        C  0.73445002  0.74962333  0.10498538    -0.02800
Br195      Br  0.71519727  0.77293339  0.17279880    -0.01400
Br196      Br  0.74421681  0.65611157  0.15638173    -0.01400
Br197      Br  0.75004643  0.81991689  0.96045499    -0.01400
Br198      Br  0.84823395  0.74461576  0.97663408    -0.01400
C199        C  0.52646765  0.70996548  0.28646003    -0.02500
C200        C  0.56146410  0.72188495  0.32840062     0.07200
C201        C  0.60534112  0.75068435  0.31029851    -0.02600
C202        C  0.60057163  0.78870554  0.27325470    -0.02600
C203        C  0.56452431  0.78162876  0.23339930     0.07300
C204        C  0.52895304  0.73973588  0.23917213    -0.02800
Br205      Br  0.48290332  0.72384336  0.18341813    -0.01400
Br206      Br  0.48110733  0.65019950  0.28444028    -0.01400
Br207      Br  0.65382436  0.84126643  0.27337400    -0.01400
Br208      Br  0.66134544  0.71348004  0.28170609    -0.01400
C209        C  0.76242294  0.98533929  0.29795049    -0.02500
C210        C  0.80954258  0.99754047  0.27020910     0.07200
C211        C  0.80231268  0.01605945  0.21828977    -0.02600
C212        C  0.75643442  0.00421950  0.19174185    -0.02600
C213        C  0.71426752  0.98184841  0.21792309     0.07300
C214        C  0.71509077  0.98084114  0.27172016    -0.02800
Br215      Br  0.65123534  0.97196999  0.30855097    -0.01400
Br216      Br  0.75735594  0.97291405  0.37111380    -0.01400
Br217      Br  0.75050029  0.02012180  0.11881240    -0.01400
Br218      Br  0.84776072  0.06437268  0.18299699    -0.01400
C219        C  0.53767128  0.77997733  0.52120264    -0.02500
C220        C  0.49992225  0.81395775  0.50687047     0.07200
C221        C  0.49788406  0.82742670  0.45417157    -0.02600
C222        C  0.52372329  0.79811321  0.41607028    -0.02600
C223        C  0.54879029  0.75053069  0.42949814     0.07300
C224        C  0.55785575  0.74548477  0.48481374    -0.02800
Br225      Br  0.60013230  0.69597765  0.51753764    -0.01400
Br226      Br  0.56879377  0.78849383  0.58884837    -0.01400
Br227      Br  0.51929192  0.82725536  0.34770930    -0.01400
Br228      Br  0.46428741  0.89046837  0.43508913    -0.01400
C229        C  0.43427198  0.62155614  0.40458958    -0.02500
C230        C  0.45099824  0.57751717  0.42949658     0.07200
C231        C  0.49671817  0.58021415  0.45621394    -0.02600
C232        C  0.53503075  0.61544793  0.44011196    -0.02600
C233        C  0.52189659  0.65986409  0.40762588     0.07300
C234        C  0.46772148  0.66498042  0.39963430    -0.02800
Br235      Br  0.43591423  0.72746370  0.37789028    -0.01400
Br236      Br  0.36638664  0.62126939  0.37615824    -0.01400
Br237      Br  0.60116330  0.58995945  0.46226047    -0.01400
Br238      Br  0.50703924  0.52873063  0.50998376    -0.01400
C239        C  0.24656094  0.51686527  0.25540748    -0.02500
C240        C  0.20404699  0.48094707  0.25573397     0.07200
C241        C  0.21093978  0.43472893  0.28478574    -0.02600
C242        C  0.25939085  0.41913281  0.29888416    -0.02600
C243        C  0.30144151  0.45381693  0.29594865     0.07300
C244        C  0.29531772  0.50188932  0.27207290    -0.02800
Br245      Br  0.35358618  0.54768950  0.26143511    -0.01400
Br246      Br  0.23836475  0.59024597  0.25028589    -0.01400
Br247      Br  0.26688602  0.34875930  0.32333044    -0.01400
Br248      Br  0.15611028  0.39715871  0.31839158    -0.01400
C249        C  0.24766604  0.05840436  0.54214476    -0.02500
C250        C  0.24610130  0.07760550  0.49024948     0.07200
C251        C  0.26300631  0.03870733  0.45420326    -0.02600
C252        C  0.29508935  0.99812123  0.47154990    -0.02600
C253        C  0.30935639  0.99412643  0.52396553     0.07300
C254        C  0.28790477  0.02879149  0.55885526    -0.02800
Br255      Br  0.29947185  0.02700920  0.63272798    -0.01400
Br256      Br  0.18743896  0.02210672  0.56819161    -0.01400
Br257      Br  0.31978034  0.94729667  0.42397718    -0.01400
Br258      Br  0.23493478  0.02584578  0.38644157    -0.01400
C259        C  0.30618451  0.18744003  0.50228146    -0.02500
C260        C  0.25189154  0.18445457  0.49670914     0.07200
C261        C  0.22827528  0.23403900  0.49443929    -0.02600
C262        C  0.25502341  0.27779323  0.47545296    -0.02600
C263        C  0.30805909  0.27782853  0.47240213     0.07300
C264        C  0.33357821  0.23394174  0.49079287    -0.02800
Br265      Br  0.40680385  0.23777511  0.50170167    -0.01400
Br266      Br  0.34619951  0.13155986  0.52743941    -0.01400
Br267      Br  0.21840673  0.33881540  0.45719155    -0.01400
Br268      Br  0.17449488  0.25330424  0.54114202    -0.01400
C269        C  0.52229537  0.07652314  0.15569736    -0.02500
C270        C  0.56575302  0.07267143  0.12440673     0.07200
C271        C  0.58524590  0.11828980  0.10205903    -0.02600
C272        C  0.56051977  0.16573354  0.11090012    -0.02600
C273        C  0.50816182  0.16673023  0.13048100     0.07300
C274        C  0.48921623  0.11747125  0.14904255    -0.02800
Br275      Br  0.41950318  0.09192255  0.15052307    -0.01400
Br276      Br  0.50673587  0.02528474  0.20854330    -0.01400
Br277      Br  0.60396726  0.22620819  0.09996733    -0.01400
Br278      Br  0.64570567  0.11610780  0.05984053    -0.01400
C279        C  0.51086311  0.24038701  0.22542553    -0.02500
C280        C  0.47913337  0.25096702  0.18054496     0.07200
C281        C  0.44313598  0.29119582  0.18737091    -0.02600
C282        C  0.43159934  0.30993017  0.23662995    -0.02600
C283        C  0.46197938  0.29887259  0.28041640     0.07300
C284        C  0.50231083  0.26487110  0.27402171    -0.02800
Br285      Br  0.54534090  0.25085289  0.33308499    -0.01400
Br286      Br  0.56777969  0.19490702  0.22598122    -0.01400
Br287      Br  0.36901257  0.34715964  0.24334063    -0.01400
Br288      Br  0.40579752  0.32193954  0.13034471    -0.01400
C289        C  0.88394574  0.62899999  0.91957208    -0.02500
C290        C  0.92186857  0.59741105  0.94136951     0.07200
C291        C  0.90707997  0.56436046  0.98213882    -0.02600
C292        C  0.85629982  0.56300741  0.99800951    -0.02600
C293        C  0.82815477  0.60852127  0.99362864     0.07300
C294        C  0.83591347  0.63356256  0.94519401    -0.02800
Br295      Br  0.77975024  0.66172632  0.90747208    -0.01400
Br296      Br  0.89875837  0.66879958  0.85830014    -0.01400
Br297      Br  0.82257493  0.50031810  0.97646008    -0.01400
Br298      Br  0.95322960  0.51754724  0.01431733    -0.01400
C299        C  0.17215236  0.53459416  0.08422390    -0.02500
C300        C  0.13253283  0.57073995  0.08041490     0.07200
C301        C  0.11685214  0.59503304  0.12583945    -0.02600
C302        C  0.13461945  0.57731879  0.17436078    -0.02600
C303        C  0.16324750  0.53029354  0.17738263     0.07300
C304        C  0.19242932  0.52177578  0.13256039    -0.02800
Br305      Br  0.26439216  0.54002245  0.13430818    -0.01400
Br306      Br  0.20803304  0.50947714  0.02440478    -0.01400
Br307      Br  0.11903624  0.62034722  0.23318755    -0.01400
Br308      Br  0.06570149  0.64720278  0.12272430    -0.01400
C309        C  0.00694485  0.69182602  0.74746334    -0.02500
C310        C  0.03031828  0.71304227  0.79169156     0.07200
C311        C  0.04144325  0.76577212  0.79299683    -0.02600
C312        C  0.03981730  0.79509521  0.74673790    -0.02600
C313        C  0.02621131  0.77140553  0.69771866     0.07300
C314        C  0.00126583  0.72154633  0.70211643    -0.02800
Br315      Br  0.95027175  0.69468860  0.65431512    -0.01400
Br316      Br  0.98182015  0.62106595  0.74945215    -0.01400
Br317      Br  0.05853445  0.86643052  0.75521927    -0.01400
Br318      Br  0.06650458  0.79578052  0.85690462    -0.01400
C319        C  0.11674967  0.83171064  0.58595412    -0.02500
C320        C  0.09796154  0.80696294  0.63316185     0.07200
C321        C  0.13836437  0.78815575  0.66661739    -0.02600
C322        C  0.19025965  0.80320519  0.65878101    -0.02600
C323        C  0.20461613  0.83607886  0.61819643     0.07300
C324        C  0.16886142  0.84691631  0.57996277    -0.02800
Br325      Br  0.19316263  0.88231508  0.51818859    -0.01400
Br326      Br  0.07430090  0.85140917  0.52839066    -0.01400
Br327      Br  0.24475723  0.77475012  0.70056362    -0.01400
Br328      Br  0.13173298  0.73408026  0.71796945    -0.01400
C329        C  0.33230793  0.47873770  0.64271403    -0.02500
C330        C  0.37049348  0.48503502  0.68109275     0.07200
C331        C  0.40738829  0.44402302  0.67868242    -0.02600
C332        C  0.41791235  0.41942612  0.63078725    -0.02600
C333        C  0.38911263  0.43085603  0.58686476     0.07300
C334        C  0.34497171  0.46008729  0.59370188    -0.02800
Br335      Br  0.29591301  0.46814351  0.53854083    -0.01400
Br336      Br  0.26511310  0.45377245  0.66292740    -0.01400
Br337      Br  0.47263639  0.37178908  0.62408297    -0.01400
Br338      Br  0.43819138  0.41180902  0.73839275    -0.01400
C339        C  0.34174839  0.60538382  0.64904728    -0.02500
C340        C  0.38010664  0.58836570  0.68581284     0.07200
C341        C  0.42117936  0.62641786  0.69502473    -0.02600
C342        C  0.42716495  0.67031546  0.66346288    -0.02600
C343        C  0.38739828  0.68696688  0.63240500     0.07300
C344        C  0.34656979  0.65326648  0.62235699    -0.02800
Br345      Br  0.29511100  0.67602787  0.57400646    -0.01400
Br346      Br  0.27343221  0.57677710  0.64408895    -0.01400
Br347      Br  0.48927895  0.71193418  0.66616637    -0.01400
Br348      Br  0.46070686  0.63584531  0.75904941    -0.01400
C349        C  0.30052961  0.59099652  0.76326380    -0.02500
C350        C  0.32172448  0.54132031  0.75175402     0.07200
C351        C  0.29197524  0.49829405  0.77121018    -0.02600
C352        C  0.24168092  0.50432848  0.79083240    -0.02600
C353        C  0.21976714  0.55310896  0.79331846     0.07300
C354        C  0.24938132  0.59593975  0.77853364    -0.02800
Br355      Br  0.22014015  0.66332791  0.78572519    -0.01400
Br356      Br  0.33981428  0.65373302  0.77386089    -0.01400
Br357      Br  0.20348658  0.44592269  0.81826085    -0.01400
Br358      Br  0.32109662  0.43178684  0.78108274    -0.01400
C359        C  0.36267716  0.92914175  0.02762569    -0.02500
C360        C  0.33636029  0.88167405  0.01240348     0.07200
C361        C  0.35400886  0.83616787  0.03913864    -0.02600
C362        C  0.40326343  0.83605524  0.06043693    -0.02600
C363        C  0.42857804  0.88213953  0.07304137     0.07300
C364        C  0.40598688  0.92840359  0.06017501    -0.02800
Br365      Br  0.44170638  0.99103360  0.07793207    -0.01400
Br366      Br  0.35124654  0.99626264  0.99729627    -0.01400
Br367      Br  0.43736915  0.77179904  0.06890076    -0.01400
Br368      Br  0.31370739  0.77594441  0.06140891    -0.01400
C369        C  0.27338649  0.88070808  0.87047739    -0.02500
C370        C  0.31000598  0.88688909  0.91192199     0.07200
C371        C  0.36306834  0.88908905  0.89439657    -0.02600
C372        C  0.37668579  0.87831551  0.84202449    -0.02600
C373        C  0.33957274  0.87471496  0.80255048     0.07300
C374        C  0.28786626  0.87956463  0.81757514    -0.02800
Br375      Br  0.23415282  0.88755637  0.76638358    -0.01400
Br376      Br  0.20047883  0.87849905  0.88249490    -0.01400
Br377      Br  0.44832774  0.86886449  0.82454125    -0.01400
Br378      Br  0.42285267  0.90219681  0.93665681    -0.01400
C379        C  0.18524277  0.76839121  0.99062368    -0.02500
C380        C  0.20702620  0.72766182  0.96409748     0.07200
C381        C  0.25610186  0.73431812  0.94422182    -0.02600
C382        C  0.28326635  0.78192426  0.94976350    -0.02600
C383        C  0.25968568  0.82724411  0.97165560     0.07300
C384        C  0.20747360  0.81850378  0.98936507    -0.02800
Br385      Br  0.15657389  0.87012361  0.00238388    -0.01400
Br386      Br  0.12302961  0.75427151  0.02940324    -0.01400
Br387      Br  0.35480040  0.77822705  0.93170163    -0.01400
Br388      Br  0.28636714  0.67641332  0.91039820    -0.01400
C389        C  0.69068448  0.56232714  0.96681904    -0.02500
C390        C  0.69244370  0.51010940  0.98373716     0.07200
C391        C  0.71093565  0.50159704  0.03439272    -0.02600
C392        C  0.73361686  0.54274125  0.06327963    -0.02600
C393        C  0.74424389  0.59191089  0.03953109     0.07300
C394        C  0.71086621  0.60229504  0.99792419    -0.02800
Br395      Br  0.67592304  0.66657951  0.99529233    -0.01400
Br396      Br  0.66305652  0.58311244  0.90059330    -0.01400
Br397      Br  0.71755560  0.53744273  0.13599309    -0.01400
Br398      Br  0.70155538  0.43479174  0.06708077    -0.01400
C399        C  0.52130116  0.33177625  0.03491701    -0.02500
C400        C  0.52512957  0.30742359  0.98690164     0.07200
C401        C  0.51176834  0.25463510  0.98405065    -0.02600
C402        C  0.49662417  0.22616682  0.02887090    -0.02600
C403        C  0.49375769  0.25026264  0.07908188     0.07300
C404        C  0.51286620  0.30310544  0.08074007    -0.02800
Br405      Br  0.54311459  0.33706972  0.14074193    -0.01400
Br406      Br  0.52868767  0.40621147  0.03799898    -0.01400
Br407      Br  0.47841389  0.15387690  0.01767670    -0.01400
Br408      Br  0.51204695  0.22070857  0.91793068    -0.01400
C409        C  0.46791592  0.50141883  0.83366250    -0.02500
C410        C  0.51438619  0.49837273  0.80687105     0.07200
C411        C  0.51739614  0.52046617  0.75761012    -0.02600
C412        C  0.47262427  0.52704824  0.72834955    -0.02600
C413        C  0.42300622  0.52762614  0.75333114     0.07300
C414        C  0.42380222  0.52063619  0.80889851    -0.02800
Br415      Br  0.37064750  0.54087548  0.85580237    -0.01400
Br416      Br  0.46674261  0.48335199  0.90639718    -0.01400
Br417      Br  0.48355369  0.53706832  0.65450652    -0.01400
Br418      Br  0.58122367  0.55165229  0.73484801    -0.01400
C419        C  0.86457748  0.09789608  0.40332550    -0.02500
C420        C  0.89435405  0.07437840  0.44160430     0.07200
C421        C  0.90576287  0.02196631  0.43498938    -0.02600
C422        C  0.88304148  0.99305495  0.39578845    -0.02600
C423        C  0.86433861  0.01764013  0.35056387     0.07300
C424        C  0.84866602  0.06993137  0.35856258    -0.02800
Br425      Br  0.79931078  0.10381760  0.31473774    -0.01400
Br426      Br  0.84399135  0.16799775  0.41319338    -0.01400
Br427      Br  0.85948203  0.92537171  0.41974308    -0.01400
Br428      Br  0.94720472  0.98454908  0.48312353    -0.01400
C429        C  0.16980981  0.13897172  0.56887836    -0.02500
C430        C  0.17094100  0.12831586  0.51397280     0.07200
C431        C  0.12751948  0.10121080  0.49426621    -0.02600
C432        C  0.08072190  0.10557355  0.51846542    -0.02600
C433        C  0.07813614  0.12111234  0.57072427     0.07300
C434        C  0.12383412  0.13206144  0.59714959    -0.02800
Br435      Br  0.12435098  0.13424484  0.67164851    -0.01400
Br436      Br  0.23010623  0.15763053  0.60927834    -0.01400
Br437      Br  0.02152362  0.09305313  0.47508707    -0.01400
Br438      Br  0.12823838  0.05620513  0.43538951    -0.01400
C439        C  0.95833829  0.86120688  0.66693429    -0.02500
C440        C  0.00981262  0.85440315  0.64797971     0.07200
C441        C  0.03421605  0.90083723  0.63054033    -0.02600
C442        C  0.00534299  0.94033766  0.61000056    -0.02600
C443        C  0.95323791  0.94499172  0.62328244     0.07300
C444        C  0.93048979  0.90565170  0.65333822    -0.02800
Br445      Br  0.86056316  0.91266352  0.67565544    -0.01400
Br446      Br  0.92254405  0.81421703  0.71386147    -0.01400
Br447      Br  0.04205379  0.99077304  0.56825039    -0.01400
Br448      Br  0.10181079  0.92441973  0.65309391    -0.01400
C449        C  0.58866194  0.99706236  0.70671725    -0.02500
C450        C  0.58407509  0.01969137  0.75805091     0.07200
C451        C  0.53204631  0.01886293  0.77804670    -0.02600
C452        C  0.49033104  0.99634845  0.75063187    -0.02600
C453        C  0.49694584  0.97590569  0.70123148     0.07300
C454        C  0.54496346  0.98098018  0.67805044    -0.02800
Br455      Br  0.54967137  0.96637655  0.60460881    -0.01400
Br456      Br  0.65010343  0.97304911  0.67376450    -0.01400
Br457      Br  0.42231304  0.99551190  0.78063157    -0.01400
Br458      Br  0.51086015  0.05468255  0.83932733    -0.01400
C459        C  0.62159825  0.94978052  0.84351816    -0.02500
C460        C  0.62283341  0.00594443  0.84608556     0.07200
C461        C  0.60627301  0.02567764  0.89591917    -0.02600
C462        C  0.58836416  0.99157349  0.93464736    -0.02600
C463        C  0.60154348  0.94009008  0.93513484     0.07300
C464        C  0.61577208  0.91826416  0.88859033    -0.02800
Br465      Br  0.62532808  0.84489498  0.88699904    -0.01400
Br466      Br  0.63316483  0.91147713  0.78156909    -0.01400
Br467      Br  0.54112430  0.01315581  0.98738836    -0.01400
Br468      Br  0.59931834  0.09642986  0.91909491    -0.01400
C469        C  0.73208049  0.01067271  0.78711305    -0.02500
C470        C  0.68664509  0.03646912  0.76720492     0.07200
C471        C  0.69675584  0.06584271  0.72066465    -0.02600
C472        C  0.74204855  0.06090041  0.69330130    -0.02600
C473        C  0.78720548  0.04981912  0.71925936     0.07300
C474        C  0.78201761  0.02207128  0.76573831    -0.02800
Br475      Br  0.84347622  0.99833284  0.79832423    -0.01400
Br476      Br  0.73455975  0.96549790  0.84691938    -0.01400
Br477      Br  0.73941880  0.06031520  0.61787653    -0.01400
Br478      Br  0.65232603  0.11225351  0.68610093    -0.01400
C479        C  0.66977524  0.12607209  0.83592214    -0.02500
C480        C  0.62888117  0.10159343  0.80600821     0.07200
C481        C  0.59091562  0.13701516  0.78641955    -0.02600
C482        C  0.59061860  0.18907652  0.80296639    -0.02600
C483        C  0.62946336  0.20988859  0.83490629     0.07300
C484        C  0.66970559  0.17884647  0.84923264    -0.02800
Br485      Br  0.72469232  0.20920303  0.88989749    -0.01400
Br486      Br  0.72170514  0.08884542  0.87223602    -0.01400
Br487      Br  0.53504542  0.23300716  0.78173055    -0.01400
Br488      Br  0.54059135  0.12355220  0.73176014    -0.01400
C489        C  0.67228452  0.42831777  0.46494679    -0.02500
C490        C  0.68480917  0.39010059  0.50463180     0.07200
C491        C  0.64347636  0.35437115  0.51767962    -0.02600
C492        C  0.59865217  0.35130407  0.48766184    -0.02600
C493        C  0.58899744  0.38763508  0.44849918     0.07300
C494        C  0.62702603  0.42369340  0.43525968    -0.02800
Br495      Br  0.61517639  0.46945253  0.37718081    -0.01400
Br496      Br  0.70362697  0.49674439  0.45548363    -0.01400
Br497      Br  0.55108174  0.29327009  0.49778252    -0.01400
Br498      Br  0.64293425  0.30781286  0.57731280    -0.01400
C499        C  0.74000521  0.36206079  0.63782597    -0.02500
C500        C  0.72151267  0.39358130  0.59583942     0.07200
C501        C  0.67954732  0.42548019  0.60950496    -0.02600
C502        C  0.65116554  0.41690323  0.65499639    -0.02600
C503        C  0.66951075  0.38572899  0.69432514     0.07300
C504        C  0.71312875  0.35739457  0.68520532    -0.02800
Br505      Br  0.73430404  0.31007712  0.73887246    -0.01400
Br506      Br  0.80857367  0.33884905  0.64314886    -0.01400
Br507      Br  0.58471003  0.44507929  0.66175103    -0.01400
Br508      Br  0.66376835  0.48789590  0.57372142    -0.01400
C509        C  0.73859755  0.28671731  0.51611707    -0.02500
C510        C  0.76603621  0.33416592  0.52690192     0.07200
C511        C  0.82087842  0.32782963  0.52935519    -0.02600
C512        C  0.84083705  0.27798534  0.53387233    -0.02600
C513        C  0.80833633  0.23532004  0.54564969     0.07300
C514        C  0.75654815  0.23964466  0.53517798    -0.02800
Br515      Br  0.71101505  0.18072837  0.54101612    -0.01400
Br516      Br  0.69886632  0.27686845  0.45375280    -0.01400
Br517      Br  0.91359423  0.26821228  0.52531066    -0.01400
Br518      Br  0.87315173  0.38199121  0.53694402    -0.01400
C519        C  0.04787296  0.34348232  0.92455179    -0.02500
C520        C  0.00718983  0.33772944  0.88677607     0.07200
C521        C  0.01271156  0.37124874  0.84214349    -0.02600
C522        C  0.04910803  0.41205887  0.84255450    -0.02600
C523        C  0.07341098  0.42580618  0.88897476     0.07300
C524        C  0.07341557  0.39103158  0.92993848    -0.02800
Br525      Br  0.10479092  0.40931329  0.99509085    -0.01400
Br526      Br  0.08370084  0.28886133  0.95944767    -0.01400
Br527      Br  0.06005559  0.45524663  0.78204620    -0.01400
Br528      Br  0.96757773  0.37106332  0.78241879    -0.01400
C529        C  0.86667864  0.30901010  0.93696383    -0.02500
C530        C  0.90862981  0.32915611  0.90554029     0.07200
C531        C  0.89970266  0.37911017  0.88396905    -0.02600
C532        C  0.84987709  0.39387300  0.87171708    -0.02600
C533        C  0.80862113  0.37016441  0.89742486     0.07300
C534        C  0.81941803  0.33397195  0.93658150    -0.02800
Br535      Br  0.76867574  0.31723450  0.98891737    -0.01400
Br536      Br  0.86232191  0.24137873  0.96982159    -0.01400
Br537      Br  0.84011358  0.45078071  0.82500022    -0.01400
Br538      Br  0.94148591  0.43788209  0.90317903    -0.01400
C539        C  0.99935530  0.25544890  0.81047770    -0.02500
C540        C  0.95429029  0.26934333  0.83867987     0.07200
C541        C  0.90672297  0.26117306  0.81085945    -0.02600
C542        C  0.90591751  0.24565038  0.75871490    -0.02600
C543        C  0.95091424  0.23632082  0.73242840     0.07300
C544        C  0.99744491  0.24439531  0.75720322    -0.02800
Br545      Br  0.05872374  0.24070175  0.71657682    -0.01400
Br546      Br  0.06424723  0.24393715  0.84249312    -0.01400
Br547      Br  0.84223468  0.23074737  0.72217459    -0.01400
Br548      Br  0.84026791  0.25544212  0.84075656    -0.01400
C549        C  0.84196086  0.58425101  0.17830201    -0.02500
C550        C  0.86744783  0.63055527  0.19315333     0.07200
C551        C  0.88621665  0.66366988  0.15398832    -0.02600
C552        C  0.87300639  0.65384663  0.10212502    -0.02600
C553        C  0.83433769  0.61639019  0.08983187     0.07300
C554        C  0.83054689  0.57521745  0.12592860    -0.02800
Br555      Br  0.83805250  0.50481798  0.10475202    -0.01400
Br556      Br  0.82562923  0.53022973  0.22808456    -0.01400
Br557      Br  0.92071918  0.67765424  0.05073189    -0.01400
Br558      Br  0.92868216  0.72317066  0.17013526    -0.01400
C559        C  0.68372738  0.62463196  0.36267072    -0.02500
C560        C  0.72070174  0.65244601  0.39076933     0.07200
C561        C  0.70554440  0.69328406  0.42214521    -0.02600
C562        C  0.65778739  0.71447205  0.41525827    -0.02600
C563        C  0.61716861  0.68426611  0.39332992     0.07300
C564        C  0.63208061  0.63882951  0.36531207    -0.02800
Br565      Br  0.58483991  0.59631840  0.32613005    -0.01400
Br566      Br  0.70418282  0.57151109  0.31527851    -0.01400
Br567      Br  0.65734458  0.78856110  0.42308909    -0.01400
Br568      Br  0.74950979  0.72097473  0.47591721    -0.01400
C569        C  0.83849239  0.84057583  0.31904127    -0.02500
C570        C  0.88528747  0.82412142  0.33757395     0.07200
C571        C  0.92815212  0.85716428  0.33245018    -0.02600
C572        C  0.92226914  0.90994835  0.32075014    -0.02600
C573        C  0.87384544  0.92898488  0.30291514     0.07300
C574        C  0.83510380  0.88910556  0.29469694    -0.02800
Br575      Br  0.78880748  0.88640083  0.23673454    -0.01400
Br576      Br  0.78038974  0.79319696  0.32089568    -0.01400
Br577      Br  0.98131171  0.95274549  0.33703967    -0.01400
Br578      Br  0.99545393  0.82946901  0.34132123    -0.01400
C579        C  0.02648241  0.70364577  0.52532827    -0.02500
C580        C  0.99577212  0.73112127  0.49101366     0.07200
C581        C  0.97529597  0.77686760  0.50903560    -0.02600
C582        C  0.97652121  0.78861368  0.56175485    -0.02600
C583        C  0.01566109  0.76902803  0.59470423     0.07300
C584        C  0.03960663  0.72383810  0.57475457    -0.02800
Br585      Br  0.08456409  0.68261391  0.61489866    -0.01400
Br586      Br  0.04915640  0.63709536  0.50430502    -0.01400
Br587      Br  0.90800362  0.80052468  0.58448666    -0.01400
Br588      Br  0.94009498  0.82302637  0.46444083    -0.01400
C589        C  0.06226637  0.53686561  0.32965913    -0.02500
C590        C  0.01908175  0.54693804  0.29987610     0.07200
C591        C  0.01794161  0.53233983  0.24761888    -0.02600
C592        C  0.06039659  0.51024321  0.22435758    -0.02600
C593        C  0.10734158  0.50376815  0.25274084     0.07300
C594        C  0.10724354  0.51893499  0.30667153    -0.02800
Br595      Br  0.16613574  0.52575419  0.35203739    -0.01400
Br596      Br  0.05860271  0.54751977  0.40358106    -0.01400
Br597      Br  0.05126081  0.48794349  0.15252362    -0.01400
Br598      Br  0.95917359  0.54441228  0.20526376    -0.01400
C599        C  0.79375055  0.43155916  0.46406550    -0.02500
C600        C  0.77566251  0.43286614  0.51675678     0.07200
C601        C  0.79604107  0.47470765  0.54800214    -0.02600
C602        C  0.82394683  0.51661098  0.52505208    -0.02600
C603        C  0.83645641  0.51677080  0.47223313     0.07300
C604        C  0.82357294  0.47250589  0.44262963    -0.02800
Br605      Br  0.84078252  0.46873185  0.36953038    -0.01400
Br606      Br  0.77430688  0.37686734  0.41659938    -0.01400
Br607      Br  0.84908620  0.57329791  0.56706330    -0.01400
Br608      Br  0.79658827  0.47508722  0.62291656    -0.01400
C609        C  0.09505937  0.34480703  0.18615523    -0.02500
C610        C  0.13187840  0.32495248  0.15293772     0.07200
C611        C  0.17400293  0.35623392  0.14002494    -0.02600
C612        C  0.18293394  0.40421342  0.16497598    -0.02600
C613        C  0.14469581  0.42864111  0.19654124     0.07300
C614        C  0.10061877  0.39451577  0.20851006    -0.02800
Br615      Br  0.04815316  0.40439716  0.26152687    -0.01400
Br616      Br  0.03575521  0.30117870  0.20214618    -0.01400
Br617      Br  0.25470638  0.42175607  0.16746350    -0.01400
Br618      Br  0.22329771  0.32957051  0.09193511    -0.01400
C619        C  0.22912415  0.13620089  0.32851526    -0.02500
C620        C  0.18031496  0.15297312  0.31228169     0.07200
C621        C  0.15121848  0.17846988  0.34914442    -0.02600
C622        C  0.16192647  0.17316217  0.40275290    -0.02600
C623        C  0.20715113  0.14693541  0.42069241     0.07300
C624        C  0.24423488  0.14065857  0.38101747    -0.02800
Br625      Br  0.31626412  0.13520393  0.39523501    -0.01400
Br626      Br  0.27560025  0.10213351  0.28219448    -0.01400
Br627      Br  0.11241586  0.20618158  0.44575770    -0.01400
Br628      Br  0.09942672  0.22585725  0.32596138    -0.01400
C629        C  0.38260570  0.19635312  0.17130466    -0.02500
C630        C  0.41382083  0.20371419  0.12488971     0.07200
C631        C  0.38385948  0.20182473  0.07760547    -0.02600
C632        C  0.33563511  0.17608630  0.07705335    -0.02600
C633        C  0.30717813  0.17208134  0.12267497     0.07300
C634        C  0.32938474  0.19075247  0.16789729    -0.02800
Br635      Br  0.28716642  0.21758977  0.22183193    -0.01400
Br636      Br  0.40665136  0.18085907  0.24064110    -0.01400
Br637      Br  0.30418478  0.15582168  0.01245870    -0.01400
Br638      Br  0.38795061  0.25166830  0.02159564    -0.01400
C639        C  0.93244591  0.98720911  0.21734026    -0.02500
C640        C  0.91191614  0.01224495  0.26228570     0.07200
C641        C  0.94327192  0.05433823  0.28061363    -0.02600
C642        C  0.99525455  0.05776878  0.26852870    -0.02600
C643        C  0.01248591  0.03945766  0.22108644     0.07300
C644        C  0.97971797  0.00469743  0.19464135    -0.02800
Br645      Br  0.00040681  0.98119432  0.12756792    -0.01400
Br646      Br  0.89623710  0.93258154  0.18218952    -0.01400
Br647      Br  0.03968664  0.09508570  0.31470502    -0.01400
Br648      Br  0.91900409  0.12333951  0.28120282    -0.01400
C649        C  0.97877242  0.20659578  0.93551293    -0.02500
C650        C  0.97061879  0.26099678  0.93997367     0.07200
C651        C  0.97200417  0.28062177  0.99206779    -0.02600
C652        C  0.98484171  0.24845508  0.03382653    -0.02600
C653        C  0.01003127  0.20232107  0.02495392     0.07300
C654        C  0.00393745  0.17986646  0.97574271    -0.02800
Br655      Br  0.02606397  0.11050679  0.96439882    -0.01400
Br656      Br  0.94816717  0.16347994  0.88252964    -0.01400
Br657      Br  0.96117330  0.26502372  0.10182854    -0.01400
Br658      Br  0.95957092  0.35160707  0.01008504    -0.01400
C659        C  0.24302481  0.93351395  0.04534398    -0.02500
C660        C  0.25567669  0.92970229  0.99086669     0.07200
C661        C  0.24159877  0.97472066  0.96036251    -0.02600
C662        C  0.21183681  0.01490642  0.98186203    -0.02600
C663        C  0.20048357  0.01658102  0.03506802     0.07300
C664        C  0.21949950  0.97702609  0.06664416    -0.02800
Br665      Br  0.21851648  0.98418531  0.14158098    -0.01400
Br666      Br  0.25234974  0.87837342  0.09473896    -0.01400
Br667      Br  0.18888405  0.07074287  0.93845076    -0.01400
Br668      Br  0.27085390  0.99374688  0.89370233    -0.01400
loop_ 
_geom_bond_atom_site_label_1 
_geom_bond_atom_site_label_2 
_geom_bond_distance 
_geom_bond_site_symmetry_2 
_ccdc_geom_bond_type 
O1          Cr19   2.038       .  S
O1            C9   1.275       .  A
O2          Cr19   1.973       .  S
O2            C3   1.257       .  A
C3            O4   1.279       .  A
C3          C643   1.506       .  S
O4          Cr20   2.072       .  S
O5          Cr20   1.978       .  S
O5            C6   1.258       .  A
C6            O7   1.277       .  A
C6          C663   1.523       .  S
O7          Cr21   2.071       .  S
O8          Cr21   1.979       .  S
O8            C9   1.264       .  A
C9          C653   1.506       .  S
O10         Cr19   1.965       .  S
O10          C18   1.255       .  A
O11         Cr19   2.037       .  S
O11          C12   1.278       .  A
C12          O13   1.243       .  A
C12         C620   1.515       .  S
O13         Cr20   1.960       .  S
O14         Cr20   2.050       .  S
O14          C15   1.277       .  A
C15          O16   1.257       .  A
C15         C633   1.480       .  S
O16         Cr21   1.958       .  S
O17         Cr21   2.066       .  S
O17          C18   1.276       .  A
C18         C610   1.507       .  S
Cr19         O22   1.756       .  S
Cr20         O22   1.762       .  S
Cr21         O22   1.777       .  S
O23         Cr41   2.072       .  S
O23          C31   1.280       .  A
O24         Cr41   1.972       .  S
O24          C25   1.264       .  A
C25          O26   1.266       .  A
C25         C590   1.486   1_655  S
O26         Cr42   2.015       .  S
O27         Cr42   1.958       .  S
O27          C28   1.251       .  A
C28          O29   1.280       .  A
C28         C603   1.506       .  S
O29         Cr43   2.074       .  S
O30         Cr43   1.953       .  S
O30          C31   1.255       .  A
C31         C580   1.493       .  S
O32         Cr41   1.949       .  S
O32          C40   1.250       .  A
O33         Cr41   2.043       .  S
O33          C34   1.277       .  A
C34          O35   1.256       .  A
C34         C550   1.483       .  S
O35         Cr42   1.957       .  S
O36         Cr42   2.040       .  S
O36          C37   1.266       .  A
C37          O38   1.246       .  A
C37         C560   1.477       .  S
O38         Cr43   1.935       .  S
O39         Cr43   2.042       .  S
O39          C40   1.275       .  A
C40         C570   1.481       .  S
Cr41         O44   1.762       .  S
Cr42         O44   1.752       .  S
Cr43         O44   1.749       .  S
C45         C520   1.602   1_655  S
C45         C530   1.611       .  S
C45         C540   1.602       .  S
C45         C650   1.584       .  S
C46         C490   1.617       .  S
C46         C500   1.607       .  S
C46         C510   1.624       .  S
C46         C600   1.589       .  S
C47         C450   1.627       .  S
C47         C460   1.622       .  S
C47         C470   1.629       .  S
C47         C480   1.621       .  S
O48         Cr66   1.894       .  S
O48          C56   1.240   1_545  A
O49         Cr66   2.054   1_455  S
O49          C50   1.281       .  A
C50          O51   1.247   1_455  A
C50         C433   1.480       .  S
O51         Cr67   1.890       .  S
O52         Cr67   2.104       .  S
O52          C53   1.291       .  A
C53          O54   1.248       .  A
C53         C420   1.498       .  S
O54         Cr68   1.896       .  S
O55         Cr68   2.092       .  S
O55          C56   1.287   1_545  A
C56         C443   1.494       .  S
O57         Cr66   2.109       .  S
O57          C65   1.280       .  A
O58         Cr66   1.925       .  S
O58          C59   1.253       .  A
C59          O60   1.271       .  A
C59         C543   1.466       .  S
O60         Cr67   2.038       .  S
O61         Cr67   1.934       .  S
O61          C62   1.235       .  A
C62          O63   1.271       .  A
C62         C513   1.489       .  S
O63         Cr68   2.080       .  S
O64         Cr68   1.933       .  S
O64          C65   1.240       .  A
C65         C473   1.513       .  S
Cr66         O69   1.755       .  S
Cr67         O69   1.738       .  S
Cr68         O69   1.740       .  S
O70         Cr88   2.042       .  S
O70          C78   1.275       .  A
O71         Cr88   1.955       .  S
O71          C72   1.253       .  A
C72          O73   1.280       .  A
C72         C390   1.517       .  S
O73         Cr89   2.073       .  S
O74         Cr89   1.953       .  S
O74          C75   1.258       .  A
C75          O76   1.276       .  A
C75         C400   1.503       .  S
O76         Cr90   2.055       .  S
O77         Cr90   1.971       .  S
O77          C78   1.260       .  A
C78         C410   1.499       .  S
O79         Cr88   1.959       .  S
O79          C87   1.259       .  A
O80         Cr88   2.059       .  S
O80          C81   1.273       .  A
C81          O82   1.251       .  A
C81         C533   1.492       .  S
O82         Cr89   1.950       .  S
O83         Cr89   2.056       .  S
O83          C84   1.277       .  A
C84          O85   1.250       .  A
C84         C483   1.498       .  S
O85         Cr90   1.954       .  S
O86         Cr90   2.038       .  S
O86          C87   1.273       .  A
C87         C503   1.485       .  S
Cr88         O91   1.758       .  S
Cr89         O91   1.754       .  S
Cr90         O91   1.759       .  S
C92         C360   1.607   1_556  S
C92         C370   1.631       .  S
C92         C383   1.619       .  S
C92         C660   1.634       .  S
C93         C330   1.639       .  S
C93         C340   1.626       .  S
C93         C350   1.612       .  S
C93         C413   1.592       .  S
C94         C313   1.591       .  S
C94         C320   1.628       .  S
C94         C440   1.607       .  S
C94         C583   1.608       .  S
O95        Cr113   1.940       .  S
O95         C103   1.240   1_556  A
O96        Cr113   2.033       .  S
O96          C97   1.268       .  A
C97          O98   1.247       .  A
C97         C523   1.461       .  S
O98        Cr114   1.930       .  S
O99        Cr114   2.066   1_655  S
O99         C100   1.279       .  A
C100        O101   1.258   1_655  A
C100        C290   1.492       .  S
O101       Cr115   1.959       .  S
O102       Cr115   2.066   1_554  S
O102        C103   1.274       .  A
C103        C300   1.488       .  S
O104       Cr113   2.072       .  S
O104        C112   1.281       .  A
O105       Cr113   1.932       .  S
O105        C106   1.255       .  A
C106        O107   1.281       .  A
C106        C353   1.490       .  S
O107       Cr114   2.077       .  S
O108       Cr114   1.943       .  S
O108        C109   1.254       .  A
C109        O110   1.276       .  A
C109        C310   1.479       .  S
O110       Cr115   2.047       .  S
O111       Cr115   1.949       .  S
O111        C112   1.256       .  A
C112        C380   1.492       .  S
Cr113       O116   1.754       .  S
Cr114       O116   1.747       .  S
Cr115       O116   1.760       .  S
C117        C273   1.614       .  S
C117        C280   1.603       .  S
C117        C403   1.606       .  S
C117        C630   1.628       .  S
C118        C250   1.643       .  S
C118        C260   1.607       .  S
C118        C430   1.562       .  S
C118        C623   1.612       .  S
C119        C240   1.573       .  S
C119        C303   1.618       .  S
C119        C593   1.576       .  S
C119        C613   1.646       .  S
O120       Cr138   1.928       .  S
O120        C128   1.245       .  A
O121       Cr138   2.105       .  S
O121        C122   1.287       .  A
C122        O123   1.241       .  A
C122        C333   1.495       .  S
O123       Cr139   1.926       .  S
O124       Cr139   2.037       .  S
O124        C125   1.268       .  A
C125        O126   1.255       .  A
C125        C230   1.474       .  S
O126       Cr140   1.932       .  S
O127       Cr140   2.056       .  S
O127        C128   1.275       .  A
C128        C493   1.490       .  S
O129       Cr138   2.091       .  S
O129        C137   1.287       .  A
O130       Cr138   1.941       .  S
O130        C131   1.245       .  A
C131        O132   1.279       .  A
C131        C263   1.492       .  S
O132       Cr139   2.075       .  S
O133       Cr139   1.906       .  S
O133        C134   1.253       .  A
C134        O135   1.279       .  A
C134        C243   1.478       .  S
O135       Cr140   2.050       .  S
O136       Cr140   1.905       .  S
O136        C137   1.245       .  A
C137        C283   1.511       .  S
Cr138       O141   1.742       .  S
Cr139       O141   1.747       .  S
Cr140       O141   1.752       .  S
O142       Cr160   2.054       .  S
O142        C150   1.270       .  A
O143       Cr160   1.976       .  S
O143        C144   1.265       .  A
C144        O145   1.281       .  A
C144        C220   1.518       .  S
O145       Cr161   2.051       .  S
O146       Cr161   1.970       .  S
O146        C147   1.258       .  A
C147        O148   1.268       .  A
C147        C453   1.500       .  S
O148       Cr162   2.022       .  S
O149       Cr162   1.963       .  S
O149        C150   1.245       .  A
C150        C253   1.496       .  S
O151       Cr160   1.961       .  S
O151        C159   1.260       .  A
O152       Cr160   2.045       .  S
O152        C153   1.269       .  A
C153        O154   1.256       .  A
C153        C343   1.489       .  S
O154       Cr161   1.961       .  S
O155       Cr161   2.053       .  S
O155        C156   1.277       .  A
C156        O157   1.253       .  A
C156        C373   1.528       .  S
O157       Cr162   1.954       .  S
O158       Cr162   2.054       .  S
O158        C159   1.279       .  A
C159        C323   1.488       .  S
Cr160       O163   1.785       .  S
Cr161       O163   1.756       .  S
Cr162       O163   1.761       .  S
C164        C210   1.597       .  S
C164        C423   1.601   1_565  S
C164        C573   1.613       .  S
C164        C640   1.617   1_565  S
C165        C200   1.634       .  S
C165        C223   1.636       .  S
C165        C233   1.603       .  S
C165        C563   1.572       .  S
C166        C190   1.637       .  S
C166        C293   1.598   1_554  S
C166        C393   1.615       .  S
C166        C553   1.595       .  S
O167       Cr185   1.950       .  S
O167        C175   1.247       .  A
O168       Cr185   2.065       .  S
O168        C169   1.281   1_554  A
C169        O170   1.252   1_556  A
C169        C463   1.494       .  S
O170       Cr186   1.913       .  S
O171       Cr186   2.098   1_545  S
O171        C172   1.279       .  A
C172        O173   1.247   1_545  A
C172        C270   1.507       .  S
O173       Cr187   1.938       .  S
O174       Cr187   2.030       .  S
O174        C175   1.266       .  A
C175        C363   1.479       .  S
O176       Cr185   2.079       .  S
O176        C184   1.286       .  A
O177       Cr185   1.953       .  S
O177        C178   1.254       .  A
C178        O179   1.277       .  A
C178        C193   1.510       .  S
O179       Cr186   2.072       .  S
O180       Cr186   1.943       .  S
O180        C181   1.253       .  A
C181        O182   1.276       .  A
C181        C213   1.488       .  S
O182       Cr187   2.065       .  S
O183       Cr187   1.932       .  S
O183        C184   1.258       .  A
C184        C203   1.506       .  S
Cr185       O188   1.770       .  S
Cr186       O188   1.777       .  S
Cr187       O188   1.769       .  S
C189        C190   1.449       .  A
C189        C194   1.415       .  A
C189       Br196   1.913       .  S
C190        C191   1.455       .  A
C191        C192   1.433       .  A
C191       Br198   1.925   1_554  S
C192        C193   1.404       .  A
C192       Br197   1.927   1_554  S
C193        C194   1.394       .  A
C194       Br195   1.932       .  S
C199        C200   1.451       .  A
C199        C204   1.444       .  A
C199       Br206   1.934       .  S
C200        C201   1.435       .  A
C201        C202   1.381       .  A
C201       Br208   1.931       .  S
C202        C203   1.408       .  A
C202       Br207   1.929       .  S
C203        C204   1.423       .  A
C204       Br205   1.921       .  S
C209        C210   1.457       .  A
C209        C214   1.417       .  A
C209       Br216   1.922       .  S
C210        C211   1.438   1_565  A
C211        C212   1.413       .  A
C211       Br218   1.935       .  S
C212        C213   1.409   1_545  A
C212       Br217   1.936       .  S
C213        C214   1.392       .  A
C214       Br215   1.936       .  S
C219        C220   1.393       .  A
C219        C224   1.417       .  A
C219       Br226   1.942       .  S
C220        C221   1.407       .  A
C221        C222   1.432       .  A
C221       Br228   1.943       .  S
C222        C223   1.457       .  A
C222       Br227   1.924       .  S
C223        C224   1.456       .  A
C224       Br225   1.914       .  S
C229        C230   1.392       .  A
C229        C234   1.418       .  A
C229       Br236   1.926       .  S
C230        C231   1.384       .  A
C231        C232   1.404       .  A
C231       Br238   1.948       .  S
C232        C233   1.472       .  A
C232       Br237   1.958       .  S
C233        C234   1.446       .  A
C234       Br235   1.927       .  S
C239        C240   1.436       .  A
C239        C244   1.413       .  A
C239       Br246   1.930       .  S
C240        C241   1.429       .  A
C241        C242   1.392       .  A
C241       Br248   1.923       .  S
C242        C243   1.409       .  A
C242       Br247   1.948       .  S
C243        C244   1.404       .  A
C244       Br245   1.932       .  S
C249        C250   1.430       .  A
C249        C254   1.390       .  A
C249       Br256   1.939       .  S
C250        C251   1.458       .  A
C251        C252   1.437   1_545  A
C251       Br258   1.929       .  S
C252        C253   1.410       .  A
C252       Br257   1.936       .  S
C253        C254   1.408   1_565  A
C254       Br255   1.935       .  S
C259        C260   1.432       .  A
C259        C264   1.421       .  A
C259       Br266   1.925       .  S
C260        C261   1.446       .  A
C261        C262   1.408       .  A
C261       Br268   1.937       .  S
C262        C263   1.394       .  A
C262       Br267   1.933       .  S
C263        C264   1.418       .  A
C264       Br265   1.942       .  S
C269        C270   1.405       .  A
C269        C274   1.401       .  A
C269       Br276   1.940       .  S
C270        C271   1.401       .  A
C271        C272   1.429       .  A
C271       Br278   1.929       .  S
C272        C273   1.466       .  A
C272       Br277   1.938       .  S
C273        C274   1.442       .  A
C274       Br275   1.930       .  S
C279        C280   1.457       .  A
C279        C284   1.434       .  A
C279       Br286   1.929       .  S
C280        C281   1.440       .  A
C281        C282   1.403       .  A
C281       Br288   1.949       .  S
C282        C283   1.417       .  A
C282       Br287   1.937       .  S
C283        C284   1.407       .  A
C284       Br285   1.937       .  S
C289        C290   1.421       .  A
C289        C294   1.433       .  A
C289       Br296   1.922       .  S
C290        C291   1.405       .  A
C291        C292   1.394       .  A
C291       Br298   1.925   1_556  S
C292        C293   1.416       .  A
C292       Br297   1.921       .  S
C293        C294   1.421       .  A
C294       Br295   1.925       .  S
C299        C300   1.423       .  A
C299        C304   1.400       .  A
C299       Br306   1.938       .  S
C300        C301   1.405       .  A
C301        C302   1.417       .  A
C301       Br308   1.935       .  S
C302        C303   1.454       .  A
C302       Br307   1.945       .  S
C303        C304   1.412       .  A
C304       Br305   1.936       .  S
C309        C310   1.407       .  A
C309        C314   1.411       .  A
C309       Br316   1.939   1_455  S
C310        C311   1.395       .  A
C311        C312   1.416       .  A
C311       Br318   1.940       .  S
C312        C313   1.454       .  A
C312       Br317   1.921       .  S
C313        C314   1.441       .  A
C314       Br315   1.941   1_455  S
C319        C320   1.457       .  A
C319        C324   1.422       .  A
C319       Br326   1.933       .  S
C320        C321   1.460       .  A
C321        C322   1.421       .  A
C321       Br328   1.933       .  S
C322        C323   1.396       .  A
C322       Br327   1.950       .  S
C323        C324   1.395       .  A
C324       Br325   1.939       .  S
C329        C330   1.417       .  A
C329        C334   1.404       .  A
C329       Br336   1.934       .  S
C330        C331   1.461       .  A
C331        C332   1.429       .  A
C331       Br338   1.939       .  S
C332        C333   1.399       .  A
C332       Br337   1.930       .  S
C333        C334   1.414       .  A
C334       Br335   1.935       .  S
C339        C340   1.459       .  A
C339        C344   1.423       .  A
C339       Br346   1.927       .  S
C340        C341   1.465       .  A
C341        C342   1.405       .  A
C341       Br348   1.967       .  S
C342        C343   1.393       .  A
C342       Br347   1.934       .  S
C343        C344   1.392       .  A
C344       Br345   1.941       .  S
C349        C350   1.453       .  A
C349        C354   1.409       .  A
C349       Br356   1.928       .  S
C350        C351   1.436       .  A
C351        C352   1.427       .  A
C351       Br358   1.925       .  S
C352        C353   1.409       .  A
C352       Br357   1.930       .  S
C353        C354   1.393       .  A
C354       Br355   1.942       .  S
C359        C360   1.455       .  A
C359        C364   1.414       .  A
C359       Br366   1.940   1_554  S
C360        C361   1.453       .  A
C361        C362   1.405       .  A
C361       Br368   1.951       .  S
C362        C363   1.396       .  A
C362       Br367   1.928       .  S
C363        C364   1.394       .  A
C364       Br365   1.916       .  S
C369        C370   1.446       .  A
C369        C374   1.422       .  A
C369       Br376   1.938       .  S
C370        C371   1.464       .  A
C371        C372   1.433       .  A
C371       Br378   1.935       .  S
C372        C373   1.412       .  A
C372       Br377   1.956       .  S
C373        C374   1.421       .  A
C374       Br375   1.947       .  S
C379        C380   1.401       .  A
C379        C384   1.414       .  A
C379       Br386   1.943   1_556  S
C380        C381   1.393       .  A
C381        C382   1.421       .  A
C381       Br388   1.936       .  S
C382        C383   1.463       .  A
C382       Br387   1.940       .  S
C383        C384   1.457       .  A
C384       Br385   1.950   1_556  S
C389        C390   1.426       .  A
C389        C394   1.411       .  A
C389       Br396   1.939       .  S
C390        C391   1.415   1_556  A
C391        C392   1.426       .  A
C391       Br398   1.938       .  S
C392        C393   1.436       .  A
C392       Br397   1.932       .  S
C393        C394   1.416   1_554  A
C394       Br395   1.929       .  S
C399        C400   1.403   1_554  A
C399        C404   1.411       .  A
C399       Br406   1.943       .  S
C400        C401   1.411       .  A
C401        C402   1.423   1_556  A
C401       Br408   1.930       .  S
C402        C403   1.449       .  A
C402       Br407   1.951       .  S
C403        C404   1.452       .  A
C404       Br405   1.949       .  S
C409        C410   1.408       .  A
C409        C414   1.423       .  A
C409       Br416   1.937       .  S
C410        C411   1.396       .  A
C411        C412   1.411       .  A
C411       Br418   1.933       .  S
C412        C413   1.455       .  A
C412       Br417   1.947       .  S
C413        C414   1.448       .  A
C414       Br415   1.935       .  S
C419        C420   1.408       .  A
C419        C424   1.428       .  A
C419       Br426   1.934       .  S
C420        C421   1.415       .  A
C421        C422   1.391   1_545  A
C421       Br428   1.928   1_545  S
C422        C423   1.423   1_565  A
C422       Br427   1.948       .  S
C423        C424   1.447       .  A
C424       Br425   1.945       .  S
C429        C430   1.450       .  A
C429        C434   1.418       .  A
C429       Br436   1.948       .  S
C430        C431   1.420       .  A
C431        C432   1.387       .  A
C431       Br438   1.927       .  S
C432        C433   1.416       .  A
C432       Br437   1.937       .  S
C433        C434   1.403       .  A
C434       Br435   1.929       .  S
C439        C440   1.453   1_655  A
C439        C444   1.426       .  A
C439       Br446   1.943       .  S
C440        C441   1.423       .  A
C441        C442   1.395       .  A
C441       Br448   1.952       .  S
C442        C443   1.419   1_455  A
C442       Br447   1.932       .  S
C443        C444   1.403       .  A
C444       Br445   1.938       .  S
C449        C450   1.462   1_565  A
C449        C454   1.420       .  A
C449       Br456   1.944       .  S
C450        C451   1.460       .  A
C451        C452   1.419   1_545  A
C451       Br458   1.934       .  S
C452        C453   1.400       .  A
C452       Br457   1.947       .  S
C453        C454   1.399       .  A
C454       Br455   1.945       .  S
C459        C460   1.462   1_565  A
C459        C464   1.427       .  A
C459       Br466   1.921       .  S
C460        C461   1.461       .  A
C461        C462   1.407   1_545  A
C461       Br468   1.952       .  S
C462        C463   1.392       .  A
C462       Br467   1.940   1_565  S
C463        C464   1.390       .  A
C464       Br465   1.932       .  S
C469        C470   1.474       .  A
C469        C474   1.446       .  A
C469       Br476   1.939   1_545  S
C470        C471   1.443       .  A
C471        C472   1.393       .  A
C471       Br478   1.917       .  S
C472        C473   1.397       .  A
C472       Br477   1.953       .  S
C473        C474   1.403       .  A
C474       Br475   1.933   1_545  S
C479        C480   1.458       .  A
C479        C484   1.418       .  A
C479       Br486   1.932       .  S
C480        C481   1.463       .  A
C481        C482   1.423       .  A
C481       Br488   1.961       .  S
C482        C483   1.411       .  A
C482       Br487   1.952       .  S
C483        C484   1.394       .  A
C484       Br485   1.939       .  S
C489        C490   1.468       .  A
C489        C494   1.417       .  A
C489       Br496   1.955       .  S
C490        C491   1.449       .  A
C491        C492   1.410       .  A
C491       Br498   1.955       .  S
C492        C493   1.408       .  A
C492       Br497   1.950       .  S
C493        C494   1.393       .  A
C494       Br495   1.941       .  S
C499        C500   1.448       .  A
C499        C504   1.418       .  A
C499       Br506   1.917       .  S
C500        C501   1.442       .  A
C501        C502   1.407       .  A
C501       Br508   1.918       .  S
C502        C503   1.390       .  A
C502       Br507   1.918       .  S
C503        C504   1.399       .  A
C504       Br505   1.940       .  S
C509        C510   1.441       .  A
C509        C514   1.409       .  A
C509       Br516   1.935       .  S
C510        C511   1.454       .  A
C511        C512   1.415       .  A
C511       Br518   1.951       .  S
C512        C513   1.414       .  A
C512       Br517   1.946       .  S
C513        C514   1.393       .  A
C514       Br515   1.924       .  S
C519        C520   1.452       .  A
C519        C524   1.399       .  A
C519       Br526   1.941       .  S
C520        C521   1.448       .  A
C521        C522   1.409       .  A
C521       Br528   1.946   1_455  S
C522        C523   1.403       .  A
C522       Br527   1.938       .  S
C523        C524   1.389       .  A
C524       Br525   1.932       .  S
C529        C530   1.454       .  A
C529        C534   1.415       .  A
C529       Br536   1.950       .  S
C530        C531   1.436       .  A
C531        C532   1.408       .  A
C531       Br538   1.925       .  S
C532        C533   1.399       .  A
C532       Br537   1.927       .  S
C533        C534   1.412       .  A
C534       Br535   1.940       .  S
C539        C540   1.445       .  A
C539        C544   1.410       .  A
C539       Br546   1.923   1_655  S
C540        C541   1.452       .  A
C541        C542   1.411       .  A
C541       Br548   1.910       .  S
C542        C543   1.391       .  A
C542       Br547   1.950       .  S
C543        C544   1.390       .  A
C544       Br545   1.927   1_655  S
C549        C550   1.417       .  A
C549        C554   1.407       .  A
C549       Br556   1.940       .  S
C550        C551   1.407       .  A
C551        C552   1.409       .  A
C551       Br558   1.931       .  S
C552        C553   1.425       .  A
C552       Br557   1.916       .  S
C553        C554   1.418       .  A
C554       Br555   1.930       .  S
C559        C560   1.401       .  A
C559        C564   1.416       .  A
C559       Br566   1.940       .  S
C560        C561   1.407       .  A
C561        C562   1.393       .  A
C561       Br568   1.937       .  S
C562        C563   1.427       .  A
C562       Br567   1.939       .  S
C563        C564   1.453       .  A
C564       Br565   1.931       .  S
C569        C570   1.395       .  A
C569        C574   1.412       .  A
C569       Br576   1.936       .  S
C570        C571   1.404       .  A
C571        C572   1.416       .  A
C571       Br578   1.938       .  S
C572        C573   1.450       .  A
C572       Br577   1.932       .  S
C573        C574   1.450       .  A
C574       Br575   1.929       .  S
C579        C580   1.403   1_455  A
C579        C584   1.424       .  A
C579       Br586   1.927       .  S
C580        C581   1.401       .  A
C581        C582   1.400       .  A
C581       Br588   1.914       .  S
C582        C583   1.436   1_655  A
C582       Br587   1.926       .  S
C583        C584   1.446       .  A
C584       Br585   1.916       .  S
C589        C590   1.399       .  A
C589        C594   1.414       .  A
C589       Br596   1.937       .  S
C590        C591   1.407       .  A
C591        C592   1.405       .  A
C591       Br598   1.922   1_455  S
C592        C593   1.447       .  A
C592       Br597   1.963       .  S
C593        C594   1.452       .  A
C594       Br595   1.945       .  S
C599        C600   1.445       .  A
C599        C604   1.416       .  A
C599       Br606   1.943       .  S
C600        C601   1.451       .  A
C601        C602   1.424       .  A
C601       Br608   1.938       .  S
C602        C603   1.406       .  A
C602       Br607   1.939       .  S
C603        C604   1.420       .  A
C604       Br605   1.949       .  S
C609        C610   1.404       .  A
C609        C614   1.424       .  A
C609       Br616   1.945       .  S
C610        C611   1.395       .  A
C611        C612   1.423       .  A
C611       Br618   1.940       .  S
C612        C613   1.456       .  A
C612       Br617   1.927       .  S
C613        C614   1.471       .  A
C614       Br615   1.967       .  S
C619        C620   1.426       .  A
C619        C624   1.419       .  A
C619       Br626   1.945       .  S
C620        C621   1.403       .  A
C621        C622   1.421       .  A
C621       Br628   1.950       .  S
C622        C623   1.458       .  A
C622       Br627   1.933       .  S
C623        C624   1.428       .  A
C624       Br625   1.934       .  S
C629        C630   1.463       .  A
C629        C634   1.403       .  A
C629       Br636   1.944       .  S
C630        C631   1.454       .  A
C631        C632   1.416       .  A
C631       Br638   1.939       .  S
C632        C633   1.399       .  A
C632       Br637   1.933       .  S
C633        C634   1.391       .  A
C634       Br635   1.928       .  S
C639        C640   1.448   1_565  A
C639        C644   1.435   1_565  A
C639       Br646   1.922       .  S
C640        C641   1.435       .  A
C641        C642   1.400       .  A
C641       Br648   1.920       .  S
C642        C643   1.399   1_655  A
C642       Br647   1.919   1_655  S
C643        C644   1.411   1_455  A
C644       Br645   1.927   1_645  S
C649        C650   1.442       .  A
C649        C654   1.420   1_655  A
C649       Br656   1.937       .  S
C650        C651   1.444       .  A
C651        C652   1.408   1_556  A
C651       Br658   1.943   1_556  S
C652        C653   1.405   1_655  A
C652       Br657   1.922       .  S
C653        C654   1.411   1_554  A
C654       Br655   1.934       .  S
C659        C660   1.453   1_554  A
C659        C664   1.418       .  A
C659       Br666   1.935       .  S
C660        C661   1.463       .  A
C661        C662   1.436   1_565  A
C661       Br668   1.944       .  S
C662        C663   1.410   1_556  A
C662       Br667   1.938       .  S
C663        C664   1.411   1_545  A
C664       Br665   1.949       .  S
