geometry optimzed in LAMMPS
_audit_creation_date              2020-11-30 
_audit_creation_method            'lammps2cif' 
_symmetry_space_group_name_H-M    'P1' 
_symmetry_Int_Tables_number       1 
_symmetry_cell_setting            triclinic 
loop_ 
_symmetry_equiv_pos_as_xyz 
  x,y,z 
_cell_length_a                    39.96320053 
_cell_length_b                    40.495082288679434 
_cell_length_c                    39.93178984384558 
_cell_angle_alpha                 88.51778226837861 
_cell_angle_beta                  90.00684743555095 
_cell_angle_gamma                 90.04850097206511 
loop_ 
_atom_site_label 
_atom_site_type_symbol 
_atom_site_fract_x 
_atom_site_fract_y 
_atom_site_fract_z 
_atom_site_charge 
O1          O  0.50841058  0.16875256  0.26292041    -0.81500
O2          O  0.44994376  0.06473154  0.17483469    -0.66200
O3          O  0.47063928  0.14893520  0.20820132    -1.12800
C4          C  0.37331308  0.13204909  0.27032312     1.05400
O5          O  0.39814256  0.08033988  0.16332167    -0.79400
O6          O  0.38389915  0.14435046  0.18024331    -0.67000
Ni7        Ni  0.51560683  0.16148262  0.21584423     1.34900
C8          C  0.39162416  0.17243644  0.19164155     0.84100
O9          O  0.49667715  0.10866579  0.15885682    -0.79900
O10         O  0.52648936  0.15420703  0.16931219    -0.90200
C11         C  0.42189229  0.05946583  0.16123518     0.83700
O12         O  0.53310753  0.11922195  0.22783259    -0.68400
O13         O  0.36343600  0.12101838  0.24232132    -0.87700
C14         C  0.52060314  0.09056796  0.23138097     0.84500
C15         C  0.51945855  0.12944949  0.15127632     1.06100
H16         H  0.42948545  0.08742586  0.23808030     0.37900
O17         O  0.42641039  0.10561608  0.22239810    -1.10400
O18         O  0.40952509  0.17545625  0.21785493    -0.67000
Ni19       Ni  0.43826010  0.14558222  0.24353599     1.26300
O20         O  0.49107396  0.08329802  0.22199749    -0.67200
O21         O  0.40354715  0.14042657  0.27635919    -0.79500
C22         C  0.48443009  0.18211587  0.27865307     0.83900
O23         O  0.45487180  0.18320232  0.26674172    -0.66700
Ni24       Ni  0.38301288  0.10218650  0.20332968     1.27400
Ni25       Ni  0.46175513  0.10667981  0.19094034     1.26100
H26         H  0.46263141  0.16476089  0.19154365     0.38400
O27         O  0.17796274  0.23030184  0.52774098    -0.81500
O28         O  0.06514126  0.15712641  0.45968164    -0.66200
O29         O  0.15229960  0.18636368  0.48143388    -1.12800
C30         C  0.13324109  0.26950197  0.40110009     1.05400
O31         O  0.07786516  0.16130524  0.40564968    -0.79400
O32         O  0.14067921  0.18106716  0.39082489    -0.67000
Ni33       Ni  0.16952249  0.18352512  0.52546580     1.34900
C34         C  0.16975498  0.18931703  0.40028798     0.84100
O35         O  0.11331092  0.13138591  0.49891206    -0.79900
O36         O  0.16229740  0.13669354  0.52611516    -0.90200
C37         C  0.05928387  0.15035740  0.42935687     0.83700
O38         O  0.12855544  0.18930426  0.54899590    -0.68400
O39         O  0.11865904  0.24576897  0.38654085    -0.87700
C40         C  0.09862802  0.19558049  0.54023031     0.84500
C41         C  0.13698862  0.11977455  0.51717418     1.06100
H42         H  0.08825076  0.22463669  0.45294680     0.37900
O43         O  0.10584866  0.21050355  0.44497958    -1.10400
O44         O  0.17458224  0.21029333  0.42275066    -0.67000
Ni45       Ni  0.14804493  0.22773405  0.45792519     1.26300
O46         O  0.08847805  0.19375641  0.50994294    -0.67200
O47         O  0.14302671  0.26784132  0.43157264    -0.79500
C48         C  0.19110638  0.24959042  0.50572048     0.83900
O49         O  0.18887995  0.24394735  0.47479527    -0.75100
Ni50       Ni  0.09927043  0.20353975  0.39846434     1.27400
Ni51       Ni  0.10865959  0.17127780  0.47234911     1.26100
H52         H  0.16703622  0.17243378  0.46886471     0.38400
O53         O  0.26885918  0.49429028  0.06885760    -0.81500
O54         O  0.21122962  0.40691795  0.18221094    -0.66200
O55         O  0.23026316  0.44213572  0.09499961    -1.12800
C56         C  0.13710823  0.51072179  0.11627770     1.05400
O57         O  0.15790662  0.40157047  0.16923942    -0.79400
O58         O  0.13662790  0.42394271  0.10734659    -0.67000
Ni59       Ni  0.27520867  0.44819450  0.08026588     1.34900
C60         C  0.14553947  0.43269718  0.07779648     0.84100
O61         O  0.25425736  0.38869696  0.13497277    -0.79900
O62         O  0.28625417  0.40245851  0.09054705    -0.90200
C63         C  0.18205536  0.39692037  0.18967489     0.83700
O64         O  0.29373188  0.46125458  0.12168656    -0.68400
O65         O  0.12688293  0.48534711  0.13295547    -0.87700
C66         C  0.28312412  0.46239397  0.15158487     0.84500
C67         C  0.27755894  0.38244499  0.11426127     1.06100
H68         H  0.19558091  0.47280205  0.15822876     0.37900
O69         O  0.18936820  0.45782662  0.14082214    -1.10400
O70         O  0.16789938  0.45462136  0.07187701    -0.67000
Ni71       Ni  0.19955225  0.47874087  0.09872390     1.26300
O72         O  0.25480962  0.45087828  0.16083314    -0.67200
O73         O  0.16649645  0.51310413  0.10361968    -0.79500
C74         C  0.24489900  0.51128264  0.05630846     0.83900
O75         O  0.21464307  0.50146545  0.05856853    -0.66700
Ni76       Ni  0.14453417  0.44390417  0.14970683     1.27400
Ni77       Ni  0.22214739  0.42365495  0.13859504     1.26100
H78         H  0.22087084  0.42673195  0.07949552     0.38400
O79         O  0.02235597  0.31070896  0.76018038    -0.81500
O80         O  0.96461163  0.42934437  0.83458504    -0.66200
O81         O  0.98169545  0.34134406  0.80738824    -1.12800
C82         C  0.89066991  0.36042095  0.73592307     1.05400
O83         O  0.91153816  0.41588662  0.84290434    -0.79400
O84         O  0.89370510  0.35093055  0.82693727    -0.67000
Ni85       Ni  0.02565793  0.32375199  0.80630255     1.34900
C86         C  0.90054676  0.32238261  0.81589196     0.84100
O87         O  0.00590146  0.38260843  0.85852719    -0.79900
O88         O  0.03332915  0.33486331  0.85259946    -0.90200
C89         C  0.93579704  0.43631523  0.84583593     0.83700
O90         O  0.04778521  0.36311311  0.79166743    -0.68400
O91         O  0.88013313  0.37337701  0.76284347    -0.87700
C92         C  0.03914560  0.39289527  0.78581371     0.84500
C93         C  0.02615218  0.36048651  0.86919664     1.06100
H94         H  0.94800068  0.40444782  0.77100939     0.37900
O95         O  0.94259606  0.38691369  0.78699776    -1.10400
O96         O  0.92043874  0.31858191  0.79149088    -0.67000
Ni97       Ni  0.95317389  0.34542856  0.76829886     1.26300
O98         O  0.00996020  0.40391332  0.79289329    -0.67200
O99         O  0.92117790  0.35124456  0.73206822    -0.79500
C100        C  0.99872525  0.29909642  0.74247445     0.83900
O101        O  0.96810836  0.30533034  0.74845823    -0.66700
Ni102      Ni  0.89795278  0.39285194  0.80261649     1.27400
Ni103      Ni  0.97496222  0.38532889  0.82189544     1.26100
H104        H  0.97041980  0.32737057  0.82376849     0.38400
O105        O  0.75271073  0.00964660  0.31188055    -0.81500
O106        O  0.82768022  0.94862404  0.43071083    -0.66200
O107        O  0.80110993  0.96853597  0.34127075    -1.12800
C108        C  0.73074080  0.87798674  0.35931920     1.05400
O109        O  0.83734554  0.89748920  0.41555570    -0.79400
O110        O  0.82188570  0.88211866  0.35073842    -0.67000
Ni111      Ni  0.79894984  0.01279670  0.32480609     1.34900
C112        C  0.81091180  0.88926127  0.32151824     0.84100
O113        O  0.85007499  0.99237052  0.38574062    -0.79900
O114        O  0.84512042  0.02005900  0.33674609    -0.90200
C115        C  0.83857600  0.91984610  0.43741567     0.83700
O116        O  0.78454794  0.03237099  0.36515061    -0.68400
O117        O  0.75789417  0.86663932  0.37198593    -0.87700
C118        C  0.77754866  0.02143171  0.39442026     0.84500
C119        C  0.86071915  0.01322792  0.36396955     1.06100
H120        H  0.76522666  0.93184852  0.40357008     0.37900
O121        O  0.78138628  0.92761065  0.38620029    -1.10400
O122        O  0.78607314  0.90849273  0.31678724    -0.67000
Ni123      Ni  0.76267976  0.93974383  0.34408142     1.26300
O124        O  0.78478259  0.99221016  0.40480108    -0.67200
O125        O  0.72694169  0.90806107  0.34919294    -0.79500
C126        C  0.73433508  0.98678985  0.30049992     0.83900
O127        O  0.74225463  0.95644820  0.30375029    -0.66700
Ni128      Ni  0.79750146  0.88386653  0.39226648     1.27400
Ni129      Ni  0.81524772  0.96029267  0.38618225     1.26100
H130        H  0.81767849  0.95833804  0.32731741     0.38400
O131        O  0.01236201  0.93684864  0.75791364    -0.81500
O132        O  0.08880708  0.81534189  0.70495706    -0.66200
O133        O  0.05927692  0.90348074  0.71827741    -1.12800
C134        C  0.97898830  0.87570745  0.63742625     1.05400
O135        O  0.09005933  0.82677734  0.65069154    -0.79400
O136        O  0.06700426  0.88399657  0.62543486    -0.67000
Ni137      Ni  0.05845400  0.92264846  0.76131687     1.34900
C138        C  0.06088199  0.91356991  0.63296564     0.84100
O139        O  0.11258510  0.86386192  0.74127437    -0.79900
O140        O  0.10456245  0.91050469  0.76925373    -0.90200
C141        C  0.09815546  0.80837434  0.67561230     0.83700
O142        O  0.04347179  0.88431787  0.78519157    -0.68400
O143        O  0.00316077  0.85882039  0.62593791    -0.87700
C144        C  0.03998179  0.85401752  0.77853289     0.84500
C145        C  0.12217203  0.88546787  0.76167606     1.06100
H146        H  0.02155190  0.83919633  0.69433381     0.37900
O147        O  0.03683242  0.85547383  0.68496008    -1.10400
O148        O  0.04077220  0.92113601  0.65607922    -0.67000
Ni149      Ni  0.01914988  0.89808881  0.69253939     1.26300
O150        O  0.04921808  0.84152168  0.75101625    -0.67200
O151        O  0.98046200  0.89107339  0.66495688    -0.79500
C152        C  0.99419578  0.94643657  0.73332683     0.83900
O153        O  0.00145913  0.93982825  0.70341780    -0.66700
Ni154      Ni  0.04631989  0.84370044  0.64013762     1.27400
Ni155      Ni  0.07453972  0.85928999  0.71336804     1.26100
H156        H  0.07464123  0.91724482  0.70548796     0.38400
O157        O  0.42986249  0.72820314  0.00242967    -0.81500
O158        O  0.32296870  0.79743864  0.91570235    -0.66200
O159        O  0.40704555  0.77025192  0.95116573    -1.12800
C160        C  0.38932784  0.85947407  0.02259495     1.05400
O161        O  0.34397484  0.84771857  0.90979120    -0.79400
O162        O  0.40392759  0.86470381  0.93607781    -0.67000
Ni163      Ni  0.41880689  0.72510271  0.95593954     1.34900
C164        C  0.43210933  0.85319809  0.94534900     0.84100
O165        O  0.36528815  0.75078613  0.89785996    -0.79900
O166        O  0.40875965  0.71763067  0.90967140    -0.90200
C167        C  0.32181291  0.82637407  0.90278623     0.83700
O168        O  0.37605499  0.70891055  0.96935737    -0.68400
O169        O  0.37435212  0.87211879  0.99711527    -0.87700
C170        C  0.34707228  0.72133169  0.97221019     0.84500
C171        C  0.38485569  0.72725435  0.89065439     1.06100
H172        H  0.34608164  0.80808397  0.98297874     0.37900
O173        O  0.36436018  0.81306780  0.96783605    -1.10400
O174        O  0.43493264  0.82902129  0.96613037    -0.67000
Ni175      Ni  0.40466356  0.79886323  0.98887625     1.26300
O176        O  0.33949296  0.75033728  0.96126415    -0.67200
O177        O  0.40069240  0.82993258  0.02429745    -0.79500
C178        C  0.44443196  0.75008270  0.01946293     0.83900
O179        O  0.44318711  0.78056569  0.01111568    -0.66700
Ni180      Ni  0.35990778  0.85806745  0.95392774     1.27400
Ni181      Ni  0.36441964  0.78182531  0.93313688     1.26100
H182        H  0.42331818  0.77936967  0.93560131     0.38400
O183        O  0.22965931  0.49325220  0.58782050    -0.81500
O184        O  0.29937074  0.57251759  0.69390303    -0.66200
O185        O  0.27270538  0.54270230  0.60909504    -1.12800
C186        C  0.36365664  0.47089018  0.62193939     1.05400
O187        O  0.35061152  0.57909602  0.67325671    -0.79400
O188        O  0.36529462  0.55857797  0.60975483    -0.67000
Ni189      Ni  0.22731576  0.53984026  0.59640002     1.34900
C190        C  0.35419310  0.54845606  0.58195669     0.84100
O191        O  0.25167437  0.59279892  0.65147734    -0.79900
O192        O  0.22182596  0.58612452  0.60447728    -0.90200
C193        C  0.32847698  0.58504625  0.69540033     0.83700
O194        O  0.20893774  0.52956393  0.63938447    -0.68400
O195        O  0.37681165  0.49605704  0.63548886    -0.87700
C196        C  0.22110564  0.52329502  0.66822311     0.84500
C197        C  0.23013362  0.60278438  0.62993913     1.06100
H198        H  0.31228497  0.50780215  0.66948897     0.37900
O199        O  0.31636913  0.52342178  0.65122639    -1.10400
O200        O  0.33129852  0.52693817  0.58040592    -0.67000
Ni201      Ni  0.30134461  0.50493519  0.61089209     1.26300
O202        O  0.25185917  0.52869765  0.67544618    -0.67200
O203        O  0.33274195  0.46897831  0.61376353    -0.79500
C204        C  0.25233939  0.47683205  0.57324478     0.83900
O205        O  0.28241548  0.48654242  0.57222799    -0.66700
Ni206      Ni  0.36177511  0.53731138  0.65341878     1.27400
Ni207      Ni  0.28386654  0.55772249  0.65199944     1.26100
H208        H  0.28221039  0.55865901  0.59340382     0.38400
O209        O  0.50480629  0.55124725  0.23912376    -0.81500
O210        O  0.58311432  0.66779375  0.29798245    -0.66200
O211        O  0.55437330  0.58112415  0.27772597    -1.12800
C212        C  0.48542865  0.59524412  0.37195461     1.05400
O213        O  0.59200281  0.65217053  0.35066652    -0.79400
O214        O  0.57546790  0.58842513  0.36862453    -0.67000
Ni215      Ni  0.54951516  0.56801796  0.23243608     1.34900
C216        C  0.56633666  0.55968143  0.36029123     0.84100
O217        O  0.60368435  0.62609090  0.25319921    -0.79900
O218        O  0.59407021  0.58319509  0.22045992    -0.90200
C219        C  0.59515638  0.67323006  0.32661872     0.83700
O220        O  0.53069757  0.60825591  0.21557688    -0.68400
O221        O  0.51183442  0.60933779  0.38247681    -0.87700
C222        C  0.52750144  0.63718705  0.22670823     0.84500
C223        C  0.61138596  0.60821243  0.22875140     1.06100
H224        H  0.51943664  0.64054982  0.31510669     0.37900
O225        O  0.53584188  0.62357016  0.31990664    -1.10400
O226        O  0.54268716  0.55482635  0.33965581    -0.67000
Ni227      Ni  0.51714303  0.58211609  0.30876383     1.26300
O228        O  0.53908524  0.64605128  0.25483616    -0.67200
O229        O  0.48213394  0.58495427  0.34204385    -0.79500
C230        C  0.48859691  0.53824076  0.26358328     0.83900
O231        O  0.49702762  0.54224000  0.29388042    -0.66700
Ni232      Ni  0.55154464  0.62934518  0.36438881     1.27400
Ni233      Ni  0.56942027  0.62484164  0.28633106     1.26100
H234        H  0.57123275  0.56644815  0.28698576     0.38400
O235        O  0.67810330  0.23875829  0.48568178    -0.81500
O236        O  0.57253711  0.32262827  0.54946857    -0.66200
O237        O  0.65768764  0.28940639  0.52656396    -1.12800
C238        C  0.64295531  0.22462218  0.62339420     1.05400
O239        O  0.59087509  0.33282815  0.60038378    -0.79400
O240        O  0.65784120  0.31403138  0.61073574    -0.67000
Ni241      Ni  0.66981737  0.28545007  0.48097977     1.34900
C242        C  0.68526716  0.29959677  0.60372320     0.84100
O243        O  0.61592142  0.34100480  0.50220494    -0.79900
O244        O  0.66258271  0.33207684  0.47271537    -0.90200
C245        C  0.56814863  0.33514722  0.57785347     0.83700
O246        O  0.62642152  0.27655557  0.46311571    -0.68400
O247        O  0.63456594  0.25317604  0.63352219    -0.87700
C248        C  0.59786348  0.27184941  0.47635969     0.84500
C249        C  0.63754934  0.34994989  0.48038942     1.06100
H250        H  0.59581522  0.26005257  0.56926529     0.37900
O251        O  0.61489044  0.27455931  0.57142468    -1.10400
O252        O  0.68594255  0.27359791  0.58653420    -0.67000
Ni253      Ni  0.65417936  0.25230974  0.55778126     1.26300
O254        O  0.59170223  0.27745755  0.50701396    -0.67200
O255        O  0.64898646  0.21850875  0.59253621    -0.79500
C256        C  0.69279731  0.22151330  0.50846846     0.83900
O257        O  0.69126530  0.22862804  0.53937530    -0.66700
Ni258      Ni  0.61454726  0.29272985  0.61473334     1.27400
Ni259      Ni  0.61500881  0.30699501  0.53646688     1.26100
H260        H  0.67377191  0.30477651  0.53524443     0.38400
O261        O  0.75769910  0.98325728  0.83657572    -0.81500
O262        O  0.66965247  0.03980382  0.94845140    -0.66200
O263        O  0.70517532  0.02005186  0.86303209    -1.12800
C264        C  0.77007255  0.11582860  0.88091658     1.05400
O265        O  0.65940598  0.08906489  0.92622414    -0.79400
O266        O  0.68291507  0.11124464  0.86608560    -0.67000
Ni267      Ni  0.71114545  0.97630363  0.84838318     1.34900
C268        C  0.69370163  0.10136483  0.83814853     0.84100
O269        O  0.65310952  0.99476138  0.90386859    -0.79900
O270        O  0.66494254  0.96542937  0.85841348    -0.90200
C271        C  0.65604260  0.06805154  0.95019558     0.83700
O272        O  0.72394560  0.95717505  0.89041478    -0.68400
O273        O  0.74324048  0.12483089  0.89548628    -0.87700
C274        C  0.72579380  0.96679172  0.92040427     0.84500
C275        C  0.64588397  0.97278967  0.88283515     1.06100
H276        H  0.73526330  0.05800996  0.92503554     0.37900
O277        O  0.71989251  0.06203412  0.90670102    -1.10400
O278        O  0.71684737  0.08025451  0.83612360    -0.67000
Ni279      Ni  0.74119473  0.05165298  0.86599744     1.26300
O280        O  0.71665507  0.99574195  0.92919187    -0.67200
O281        O  0.77453720  0.08647897  0.87006278    -0.79500
C282        C  0.77231354  0.00801218  0.82249415     0.83900
O283        O  0.76276661  0.03746525  0.82667810    -0.66700
Ni284      Ni  0.70182139  0.10539603  0.91022331     1.27400
Ni285      Ni  0.68717794  0.02772258  0.90607147     1.26100
H286        H  0.68882490  0.02906070  0.84750377     0.38400
O287        O  0.93865811  0.77086962  0.00733665    -0.81500
O288        O  0.82211396  0.70407719  0.08413463    -0.66200
O289        O  0.90956570  0.72709482  0.05409671    -1.12800
C290        C  0.89248918  0.64142846  0.97848027     1.05400
O291        O  0.83959895  0.65227766  0.08921002    -0.79400
O292        O  0.90329825  0.63605363  0.06792960    -0.67000
Ni293      Ni  0.92566109  0.77113593  0.05389989     1.34900
C294        C  0.93186887  0.64548996  0.05717486     0.84100
O295        O  0.86677757  0.74712875  0.10660287    -0.79900
O296        O  0.91438893  0.77585029  0.10070649    -0.90200
C297        C  0.81784116  0.67456399  0.09498874     0.83700
O298        O  0.88472502  0.79190736  0.04129917    -0.68400
O299        O  0.87817281  0.62835995  0.00424036    -0.87700
C300        C  0.85473352  0.78280739  0.03620432     0.84500
C301        C  0.88796922  0.76800135  0.11708949     1.06100
H302        H  0.84726476  0.69360767  0.01817128     0.37900
O303        O  0.86510123  0.68773971  0.03353756    -1.10400
O304        O  0.93496616  0.66848246  0.03525111    -0.67000
Ni305      Ni  0.90654605  0.70101474  0.01428810     1.26300
O306        O  0.84468779  0.75307097  0.04224661    -0.67200
O307        O  0.90216277  0.67168668  0.97689417    -0.79500
C308        C  0.95132899  0.74880928  0.98896950     0.83900
O309        O  0.94654570  0.71819173  0.99461971    -0.66700
Ni310      Ni  0.86020899  0.64234626  0.04654011     1.27400
Ni311      Ni  0.86551172  0.71777751  0.06962641     1.26100
H312        H  0.92421523  0.71558173  0.06968684     0.38400
C313        C  0.74593800  0.88261356  0.95853136    -0.11400
C314        C  0.76940400  0.88966854  0.98351430     0.05700
C315        C  0.77538251  0.92330293  0.99051501    -0.10200
C316        C  0.75997621  0.94894155  0.97155220    -0.11900
C317        C  0.73835219  0.94147255  0.94512304    -0.01600
C318        C  0.73073558  0.90803405  0.93972730    -0.10800
C319        C  0.78978670  0.86222733  0.99943146     0.05700
H320        H  0.79269775  0.92988918  0.01008469     0.07600
H321        H  0.76623446  0.97438522  0.97645330     0.11100
H322        H  0.71374407  0.90139016  0.91984907     0.11400
H323        H  0.74062109  0.85737089  0.95202688     0.07700
C324        C  0.77686242  0.82993755  0.00476168    -0.11500
C325        C  0.79746638  0.80382431  0.01657381    -0.10700
C326        C  0.83152361  0.80933916  0.02332040    -0.01700
C327        C  0.84399609  0.84177092  0.01859735    -0.11800
C328        C  0.82363157  0.86757434  0.00688676    -0.10200
H329        H  0.75079638  0.82475690  0.99975175     0.07700
H330        H  0.78679474  0.77941954  0.02028835     0.11400
H331        H  0.86995650  0.84746691  0.02364993     0.11100
H332        H  0.83495738  0.89159476  0.00259679     0.07700
C333        C  0.65591695  0.16074086  0.77340146    -0.11400
C334        C  0.66297865  0.14470951  0.74323391     0.05700
C335        C  0.67772063  0.11328183  0.74505666    -0.10200
C336        C  0.68625400  0.09876950  0.77603276    -0.11900
C337        C  0.68022962  0.11523052  0.80610077    -0.01600
C338        C  0.66433169  0.14611197  0.80448500    -0.10800
C339        C  0.65586982  0.16121503  0.71011798     0.05700
H340        H  0.68292501  0.09996396  0.72248184     0.07600
H341        H  0.69824626  0.07478509  0.77637100     0.11100
H342        H  0.65967757  0.15956798  0.82710323     0.11400
H343        H  0.64496159  0.18518680  0.77298311     0.07700
C344        C  0.62716763  0.18079766  0.70596754    -0.11500
C345        C  0.62214080  0.19934793  0.67650410    -0.10700
C346        C  0.64549089  0.19876743  0.65016990    -0.01700
C347        C  0.67317604  0.17762813  0.65315194    -0.11800
C348        C  0.67836013  0.15901976  0.68295337    -0.10200
H349        H  0.60890572  0.18246728  0.72587980     0.07700
H350        H  0.60046503  0.21536382  0.67480007     0.11400
H351        H  0.69178336  0.17710454  0.63345786     0.11100
H352        H  0.70085796  0.14428074  0.68535173     0.07700
C353        C  0.63545108  0.41736091  0.41259997    -0.11400
C354        C  0.61711523  0.44221192  0.42833930     0.05700
C355        C  0.60706959  0.43702916  0.46176844    -0.10200
C356        C  0.61437671  0.40731542  0.47879310    -0.11900
C357        C  0.63241351  0.38230153  0.46298760    -0.01600
C358        C  0.64331323  0.38780487  0.42986941    -0.10800
C359        C  0.60703558  0.47281781  0.40964196     0.05700
H360        H  0.59259089  0.45556153  0.47440862     0.07600
H361        H  0.60559106  0.40375522  0.50429788     0.11100
H362        H  0.65693728  0.36883726  0.41697555     0.11400
H363        H  0.64355841  0.42076635  0.38686601     0.07700
C364        C  0.60976539  0.50385146  0.42440896    -0.11500
C365        C  0.59800425  0.53236813  0.40768613    -0.10700
C366        C  0.58271941  0.53035202  0.37609905    -0.01700
C367        C  0.58069570  0.49939366  0.36103297    -0.11800
C368        C  0.59294342  0.47099207  0.37751427    -0.10200
H369        H  0.62068715  0.50597919  0.44908255     0.07700
H370        H  0.59970270  0.55579972  0.42004945     0.11400
H371        H  0.56904701  0.49702893  0.33671757     0.11100
H372        H  0.59023935  0.44738153  0.36566365     0.07700
C373        C  0.68122065  0.60877846  0.16372441    -0.11400
C374        C  0.69858023  0.63803485  0.17106040     0.05700
C375        C  0.68668972  0.65737877  0.19721352    -0.10200
C376        C  0.65864740  0.64747673  0.21588097    -0.11900
C377        C  0.64158622  0.61793270  0.20894622    -0.01600
C378        C  0.65307005  0.59886503  0.18239910    -0.10800
C379        C  0.72938664  0.64785814  0.15207305     0.05700
H380        H  0.69947703  0.67988505  0.20378520     0.07600
H381        H  0.65037288  0.66310409  0.23586345     0.11100
H382        H  0.64032732  0.57627245  0.17602815     0.11400
H383        H  0.68926133  0.59359366  0.14331655     0.07700
C384        C  0.75243966  0.62375278  0.14229394    -0.11500
C385        C  0.78125586  0.63258296  0.12432723    -0.10700
C386        C  0.78789413  0.66580174  0.11553306    -0.01700
C387        C  0.76515114  0.69007742  0.12569410    -0.11800
C388        C  0.73627414  0.68122021  0.14380562    -0.10200
H389        H  0.74838527  0.59794079  0.14879833     0.07700
H390        H  0.79820873  0.61321061  0.11701558     0.11400
H391        H  0.76951255  0.71590119  0.11941651     0.11100
H392        H  0.71901657  0.70046403  0.15075362     0.07700
C393        C  0.42802156  0.42222818  0.57580050    -0.11400
C394        C  0.44296823  0.40362211  0.60205064     0.05700
C395        C  0.42837426  0.40426846  0.63410538    -0.10200
C396        C  0.40067021  0.42442756  0.64014939    -0.11900
C397        C  0.38668867  0.44384468  0.61416828    -0.01600
C398        C  0.40017568  0.44218336  0.58184238    -0.10800
C399        C  0.47473268  0.38529670  0.59637932     0.05700
H400        H  0.43898422  0.38990069  0.65473240     0.07600
H401        H  0.39100143  0.42593633  0.66540287     0.11100
H402        H  0.39040958  0.45785226  0.56172274     0.11400
H403        H  0.43890412  0.42271919  0.55096070     0.07700
C404        C  0.47969977  0.36798558  0.56676022    -0.11500
C405        C  0.51008198  0.35206025  0.56076795    -0.10700
C406        C  0.53637345  0.35302017  0.58422551    -0.01700
C407        C  0.53132881  0.37005020  0.61401416    -0.11800
C408        C  0.50088468  0.38603326  0.61999592    -0.10200
H409        H  0.45996828  0.36657063  0.54826096     0.07700
H410        H  0.51285768  0.33876455  0.53774765     0.11400
H411        H  0.55095624  0.37117152  0.63264609     0.11100
H412        H  0.49805863  0.39955238  0.64286160     0.07700
C413        C  0.41513674  0.58480343  0.51786409    -0.11400
C414        C  0.40102844  0.57444880  0.48748105     0.05700
C415        C  0.37032661  0.55768405  0.48852846    -0.10200
C416        C  0.35450831  0.55076802  0.51914309    -0.11900
C417        C  0.36902519  0.56026968  0.54963677    -0.01600
C418        C  0.39930210  0.57784931  0.54857031    -0.10800
C419        C  0.41860845  0.58089542  0.45502187     0.05700
H420        H  0.35853366  0.54982321  0.46565364     0.07600
H421        H  0.33113092  0.53722956  0.51890517     0.11100
H422        H  0.41136411  0.58519467  0.57149537     0.11400
H423        H  0.43902668  0.59742579  0.51802520     0.07700
C424        C  0.43543742  0.61091788  0.44951028    -0.11500
C425        C  0.45502057  0.61606976  0.42102417    -0.10700
C426        C  0.45838483  0.59143039  0.39708322    -0.01700
C427        C  0.43983967  0.56214824  0.40115607    -0.11800
C428        C  0.42008622  0.55689760  0.42999531    -0.10200
H429        H  0.43413263  0.63025579  0.46769071     0.07700
H430        H  0.46879044  0.63904978  0.41836408     0.11400
H431        H  0.44224133  0.54264880  0.38325352     0.11100
H432        H  0.40738362  0.53343904  0.43350324     0.07700
C433        C  0.47127706  0.67010347  0.15887866    -0.11400
C434        C  0.48881179  0.69847910  0.14785231     0.05700
C435        C  0.51556125  0.70989987  0.16729312    -0.10200
C436        C  0.52639796  0.69147819  0.19552478    -0.11900
C437        C  0.51069278  0.66143699  0.20438624    -0.01600
C438        C  0.48233413  0.65159233  0.18658660    -0.10800
C439        C  0.48121879  0.71324113  0.11428142     0.05700
H440        H  0.52950266  0.73166432  0.15935479     0.07600
H441        H  0.54865551  0.69922774  0.20867606     0.11100
H442        H  0.46986491  0.62851126  0.19300232     0.11400
H443        H  0.45004218  0.66116681  0.14487825     0.07700
C444        C  0.47554234  0.69209548  0.08759902    -0.11500
C445        C  0.46555040  0.70457880  0.05647996    -0.10700
C446        C  0.46086450  0.73867612  0.05095827    -0.01700
C447        C  0.46865110  0.76026735  0.07690706    -0.11800
C448        C  0.47890070  0.74759382  0.10840876    -0.10200
H449        H  0.47826274  0.66560235  0.09096238     0.07700
H450        H  0.46040937  0.68719222  0.03696250     0.11400
H451        H  0.46539263  0.78666914  0.07334536     0.11100
H452        H  0.48358921  0.76445840  0.12848359     0.07700
C453        C  0.49113056  0.91689536  0.90627926    -0.11400
C454        C  0.52260944  0.90241186  0.91223070     0.05700
C455        C  0.52399635  0.87096279  0.92789878    -0.10200
C456        C  0.49461981  0.85467086  0.93799124    -0.11900
C457        C  0.46311665  0.86930912  0.93237288    -0.01600
C458        C  0.46174547  0.90049296  0.91607521    -0.10800
C459        C  0.55386289  0.92054423  0.90312977     0.05700
H460        H  0.54787682  0.85933886  0.93319580     0.07600
H461        H  0.49663008  0.83075632  0.95060220     0.11100
H462        H  0.43797109  0.91261866  0.91154842     0.11400
H463        H  0.48923265  0.94099583  0.89403390     0.07700
C464        C  0.58101303  0.90430115  0.88829493    -0.11500
C465        C  0.61060679  0.92146876  0.88043993    -0.10700
C466        C  0.61379655  0.95503871  0.88784947    -0.01700
C467        C  0.58663148  0.97124546  0.90256677    -0.11800
C468        C  0.55695568  0.95428904  0.90987866    -0.10200
H469        H  0.57930548  0.87833438  0.88269518     0.07700
H470        H  0.63132374  0.90829369  0.86952507     0.11400
H471        H  0.58844303  0.99709900  0.90867154     0.11100
H472        H  0.53669561  0.96741020  0.92165687     0.07700
C473        C  0.31988471  0.64352839  0.76756492    -0.11400
C474        C  0.35356052  0.65100792  0.77426529     0.05700
C475        C  0.37863379  0.63735314  0.75428929    -0.10200
C476        C  0.37032566  0.61626074  0.72850929    -0.11900
C477        C  0.33675007  0.60815698  0.72223000    -0.01600
C478        C  0.31155281  0.62214766  0.74187969    -0.10800
C479        C  0.36271787  0.67183999  0.80284288     0.05700
H480        H  0.40474797  0.64298678  0.75863455     0.07600
H481        H  0.39031070  0.60589948  0.71378771     0.11100
H482        H  0.28544773  0.61651158  0.73746529     0.11400
H483        H  0.30005847  0.65351958  0.78275354     0.07700
C484        C  0.34458301  0.70057531  0.80967210    -0.11500
C485        C  0.35248497  0.71924088  0.83756501    -0.10700
C486        C  0.37863965  0.70947345  0.85927429    -0.01700
C487        C  0.39720687  0.68111582  0.85192533    -0.11800
C488        C  0.38932805  0.66253029  0.82404596    -0.10200
H489        H  0.32421372  0.70853237  0.79350147     0.07700
H490        H  0.33766803  0.74097773  0.84244349     0.11400
H491        H  0.41731629  0.67272626  0.86819888     0.11100
H492        H  0.40347064  0.64026227  0.81963402     0.07700
C493        C  0.98685785  0.75150139  0.90095461    -0.11400
C494        C  0.99651585  0.78477610  0.89781914     0.05700
C495        C  0.99522144  0.80466157  0.92608740    -0.10200
C496        C  0.98217506  0.79231422  0.95623789    -0.11900
C497        C  0.97027015  0.75972636  0.95886199    -0.01600
C498        C  0.97381598  0.73903007  0.93130655    -0.10800
C499        C  0.00521279  0.79990991  0.86482612     0.05700
H500        H  0.00326668  0.83020907  0.92449758     0.07600
H501        H  0.98031691  0.80868281  0.97718529     0.11100
H502        H  0.96486584  0.71377798  0.93263612     0.11400
H503        H  0.98768765  0.73570763  0.87949665     0.07700
C504        C  0.02832507  0.78518745  0.84325396    -0.11500
C505        C  0.03821025  0.80167202  0.81351444    -0.10700
C506        C  0.02504603  0.83297695  0.80518762    -0.01700
C507        C  0.00053989  0.84660157  0.82583863    -0.11800
C508        C  0.99068403  0.83023440  0.85524734    -0.10200
H509        H  0.03978343  0.76175732  0.85013380     0.07700
H510        H  0.05746023  0.79092813  0.79812839     0.11400
H511        H  0.98985691  0.87061395  0.81980254     0.11100
H512        H  0.97218375  0.84170151  0.87099984     0.07700
C513        C  0.85548425  0.02328197  0.77997077    -0.11400
C514        C  0.86395070  0.99145223  0.77003915     0.05700
C515        C  0.84101710  0.96551155  0.77484532    -0.10200
C516        C  0.81067027  0.97098603  0.79112256    -0.11900
C517        C  0.80265535  0.00262325  0.80230846    -0.01600
C518        C  0.82490757  0.02892481  0.79564658    -0.10800
C519        C  0.89795561  0.98442953  0.75812450     0.05700
H520        H  0.84732828  0.94071918  0.76748338     0.07600
H521        H  0.79387751  0.95034797  0.79566833     0.11100
H522        H  0.81937667  0.05361112  0.80386389     0.11400
H523        H  0.87295085  0.04353874  0.77639584     0.07700
C524        C  0.90297981  0.96927228  0.72739292    -0.11500
C525        C  0.93496505  0.95899024  0.71825128    -0.10700
C526        C  0.96215490  0.96292346  0.74015776    -0.01700
C527        C  0.95721388  0.97918371  0.77038360    -0.11800
C528        C  0.92538117  0.99018520  0.77911935    -0.10200
H529        H  0.88201844  0.96460822  0.71096943     0.07700
H530        H  0.93804666  0.94624585  0.69495166     0.11400
H531        H  0.97773706  0.98243878  0.78771060     0.11100
H532        H  0.92181860  0.00164846  0.80307322     0.07700
C533        C  0.14805088  0.72955817  0.68915589    -0.11400
C534        C  0.15890807  0.72348996  0.65636099     0.05700
C535        C  0.15043225  0.74597531  0.63045628    -0.10200
C536        C  0.13107128  0.77362235  0.63700258    -0.11900
C537        C  0.11976300  0.77955077  0.66966064    -0.01600
C538        C  0.12861003  0.75736366  0.69576025    -0.10800
C539        C  0.17825363  0.69339290  0.64887535     0.05700
H540        H  0.15884534  0.74222172  0.60505717     0.07600
H541        H  0.12480977  0.79027540  0.61628848     0.11100
H542        H  0.12014703  0.76122943  0.72112061     0.11400
H543        H  0.15392752  0.71239562  0.70954962     0.07700
C544        C  0.20369834  0.68217374  0.67053831    -0.11500
C545        C  0.22111586  0.65318933  0.66392958    -0.10700
C546        C  0.21339858  0.63476695  0.63551340    -0.01700
C547        C  0.18838949  0.64640570  0.61350647    -0.11800
C548        C  0.17101805  0.67539878  0.62011765    -0.10200
H549        H  0.21014124  0.69582911  0.69259733     0.07700
H550        H  0.24031399  0.64499962  0.68139121     0.11400
H551        H  0.18174400  0.63279527  0.59148288     0.11100
H552        H  0.15128511  0.68327836  0.60313669     0.07700
C553        C  0.19488335  0.89231310  0.82197438    -0.11400
C554        C  0.21370334  0.86421630  0.81416321     0.05700
C555        C  0.20367307  0.84490131  0.78732014    -0.10200
C556        C  0.17468773  0.85273156  0.76944442    -0.11900
C557        C  0.15497294  0.88003598  0.77808117    -0.01600
C558        C  0.16574153  0.90014285  0.80412145    -0.10800
C559        C  0.24269090  0.85412558  0.83504303     0.05700
H560        H  0.21802174  0.82343028  0.78045103     0.07600
H561        H  0.16729299  0.83677165  0.74938299     0.11100
H562        H  0.15110015  0.92124816  0.81145842     0.11400
H563        H  0.20196565  0.90748640  0.84276096     0.07700
C564        C  0.26561803  0.87775780  0.84597732    -0.11500
C565        C  0.29172567  0.86851059  0.86739835    -0.10700
C566        C  0.29531427  0.83545622  0.87849788    -0.01700
C567        C  0.27285371  0.81164855  0.86691178    -0.11800
C568        C  0.24682300  0.82089686  0.84530663    -0.10200
H569        H  0.26323306  0.90343840  0.83808805     0.07700
H570        H  0.30872906  0.88742952  0.87577028     0.11400
H571        H  0.27509601  0.78598205  0.87489970     0.11100
H572        H  0.22930362  0.80220889  0.83744484     0.07700
C573        C  0.68111840  0.80134086  0.37779516    -0.11400
C574        C  0.66364060  0.79697920  0.34772289     0.05700
C575        C  0.66495329  0.82236528  0.32283201    -0.10200
C576        C  0.68481411  0.85052608  0.32727640    -0.11900
C577        C  0.70354934  0.85364155  0.35668609    -0.01600
C578        C  0.70058937  0.82934819  0.38224693    -0.10800
C579        C  0.64564037  0.76536413  0.34208233     0.05700
H580        H  0.65128649  0.82014039  0.29960149     0.07600
H581        H  0.68701808  0.86879294  0.30710125     0.11100
H582        H  0.71489423  0.83120570  0.40518472     0.11400
H583        H  0.68128776  0.78236246  0.39737569     0.07700
C584        C  0.64463819  0.75165887  0.31006515    -0.11500
C585        C  0.62845226  0.72157636  0.30502487    -0.10700
C586        C  0.61356904  0.70419958  0.33201041    -0.01700
C587        C  0.61499103  0.71745979  0.36407104    -0.11800
C588        C  0.63049458  0.74784659  0.36899672    -0.10200
H589        H  0.65674666  0.76390210  0.28891817     0.07700
H590        H  0.62784631  0.71173808  0.28006193     0.11400
H591        H  0.60330403  0.70474865  0.38522178     0.11100
H592        H  0.63017291  0.75775702  0.39390270     0.07700
C593        C  0.89440346  0.82412399  0.19241603    -0.11400
C594        C  0.86241754  0.82041985  0.20667611     0.05700
C595        C  0.83991183  0.79815066  0.19247963    -0.10200
C596        C  0.84882462  0.78035983  0.16431026    -0.11900
C597        C  0.88040256  0.78468386  0.14913890    -0.01600
C598        C  0.90321964  0.80665192  0.16372543    -0.10800
C599        C  0.85152657  0.84038683  0.23545892     0.05700
H600        H  0.81518609  0.79468950  0.20313164     0.07600
H601        H  0.83047662  0.76382099  0.15388799     0.11100
H602        H  0.92766357  0.81073598  0.15268033     0.11400
H603        H  0.91214298  0.84127771  0.20285134     0.07700
C604        C  0.86913956  0.83964745  0.26594802    -0.11500
C605        C  0.85649027  0.85598353  0.29391516    -0.10700
C606        C  0.82632104  0.87388866  0.29167702    -0.01700
C607        C  0.80963610  0.87563399  0.26061889    -0.11800
C608        C  0.82192442  0.85890318  0.23302249    -0.10200
H609        H  0.89199305  0.82544502  0.26844975     0.07700
H610        H  0.87002303  0.85417320  0.31738136     0.11400
H611        H  0.78637840  0.88913206  0.25782146     0.11100
H612        H  0.80800196  0.86004276  0.20974091     0.07700
C613        C  0.87867034  0.92995314  0.52242826    -0.11400
C614        C  0.88166366  0.89691172  0.53387907     0.05700
C615        C  0.86891043  0.87178848  0.51374208    -0.10200
C616        C  0.85535618  0.87931880  0.48228858    -0.11900
C617        C  0.85331381  0.91220644  0.47056629    -0.01600
C618        C  0.86433932  0.93752766  0.49123682    -0.10800
C619        C  0.90136996  0.88849494  0.56457905     0.05700
H620        H  0.86982649  0.84613960  0.52199744     0.07600
H621        H  0.84626489  0.85935165  0.46719945     0.11100
H622        H  0.86277125  0.96314217  0.48288743     0.11400
H623        H  0.88861411  0.94997177  0.53685774     0.07700
C624        C  0.92160364  0.86014802  0.56526623    -0.11500
C625        C  0.94471289  0.85481102  0.59079394    -0.10700
C626        C  0.94881211  0.87791909  0.61610835    -0.01700
C627        C  0.92682118  0.90487675  0.61725975    -0.11800
C628        C  0.90315678  0.91005848  0.59171528    -0.10200
H629        H  0.92144985  0.84304667  0.54489918     0.07700
H630        H  0.96091580  0.83344935  0.58946171     0.11400
H631        H  0.92925178  0.92295652  0.63661349     0.11100
H632        H  0.88729787  0.93167510  0.59250035     0.07700
C633        C  0.72121240  0.13223625  0.50359369    -0.11400
C634        C  0.73219209  0.13148202  0.47012735     0.05700
C635        C  0.73430501  0.16133518  0.45153479    -0.10200
C636        C  0.72337536  0.19079859  0.46503717    -0.11900
C637        C  0.71025092  0.19135900  0.49763245    -0.01600
C638        C  0.71033433  0.16203795  0.51729863    -0.10800
C639        C  0.73985376  0.09995591  0.45339754     0.05700
H640        H  0.74357722  0.16174935  0.42603580     0.07600
H641        H  0.72409221  0.21309370  0.44945411     0.11100
H642        H  0.70021779  0.16178962  0.54246180     0.11400
H643        H  0.71947988  0.10960526  0.51853349     0.07700
C644        C  0.76012843  0.07541897  0.46859771    -0.11500
C645        C  0.77062773  0.04804065  0.45033353    -0.10700
C646        C  0.76096116  0.04498169  0.41670357    -0.01700
C647        C  0.73884209  0.06832080  0.40249030    -0.11800
C648        C  0.72830757  0.09532331  0.42062068    -0.10200
H649        H  0.76931108  0.07833599  0.49385943     0.07700
H650        H  0.78794882  0.03052767  0.46171851     0.11400
H651        H  0.73077225  0.06640338  0.37670010     0.11100
H652        H  0.71194131  0.11329908  0.40852465     0.07700
C653        C  0.12163777  0.42071790  0.74696422    -0.11400
C654        C  0.11897769  0.45526668  0.74622807     0.05700
C655        C  0.08901359  0.46947617  0.75787274    -0.10200
C656        C  0.06255640  0.44955539  0.77004116    -0.11900
C657        C  0.06544273  0.41495520  0.77080002    -0.01600
C658        C  0.09537476  0.40094333  0.75896471    -0.10800
C659        C  0.14639027  0.47588006  0.73088566     0.05700
H660        H  0.08610447  0.49605156  0.75780256     0.07600
H661        H  0.04013049  0.46121861  0.77929135     0.11100
H662        H  0.09868002  0.37440362  0.75893807     0.11400
H663        H  0.14381968  0.40879672  0.73748528     0.07700
C664        C  0.18049664  0.46731317  0.73483919    -0.11500
C665        C  0.20562601  0.48404753  0.71634122    -0.10700
C666        C  0.19703308  0.50943632  0.69333212    -0.01700
C667        C  0.16325385  0.51913475  0.69098324    -0.11800
C668        C  0.13837038  0.50272285  0.70948777    -0.10200
H669        H  0.18764817  0.44702422  0.75151365     0.07700
H670        H  0.23136036  0.47594777  0.71863040     0.11400
H671        H  0.15580492  0.53876237  0.67360178     0.11100
H672        H  0.11256668  0.50992713  0.70548963     0.07700
C673        C  0.83790729  0.26311538  0.85787481    -0.11400
C674        C  0.85159315  0.23193504  0.85046991     0.05700
C675        C  0.88240821  0.23132149  0.83355496    -0.10200
C676        C  0.89854965  0.26068168  0.82361569    -0.11900
C677        C  0.88462747  0.29178992  0.83039579    -0.01600
C678        C  0.85428093  0.29263057  0.84811081    -0.10800
C679        C  0.83369070  0.20031739  0.85988108     0.05700
H680        H  0.89422227  0.20807457  0.82793460     0.07600
H681        H  0.92197395  0.25894485  0.81013700     0.11100
H682        H  0.84258422  0.31604914  0.85334837     0.11400
H683        H  0.81397028  0.26482851  0.87037271     0.07700
C684        C  0.81432729  0.19802629  0.88921821    -0.11500
C685        C  0.79563223  0.16960615  0.89693316    -0.10700
C686        C  0.79570889  0.14230720  0.87573120    -0.01700
C687        C  0.81641800  0.14364561  0.84731525    -0.11800
C688        C  0.83507932  0.17234473  0.83941118    -0.10200
H689        H  0.81320519  0.21842086  0.90617182     0.07700
H690        H  0.78012564  0.16943268  0.91918614     0.11400
H691        H  0.81671695  0.12332080  0.83021354     0.11100
H692        H  0.84943921  0.17306013  0.81643448     0.07700
C693        C  0.94667881  0.52538759  0.87384704    -0.11400
C694        C  0.91846796  0.52991732  0.89446548     0.05700
C695        C  0.89673635  0.50272225  0.89953643    -0.10200
C696        C  0.90244916  0.47254131  0.88399855    -0.11900
C697        C  0.93047587  0.46814492  0.86336070    -0.01600
C698        C  0.95268377  0.49492451  0.85871945    -0.10800
C699        C  0.91179192  0.56228737  0.91123682     0.05700
H700        H  0.87531834  0.50444359  0.91595420     0.07600
H701        H  0.88494408  0.45246993  0.88840600     0.11100
H702        H  0.97440808  0.49256767  0.84274973     0.11400
H703        H  0.96393556  0.54551854  0.86885603     0.07700
C704        C  0.93809679  0.58300752  0.92166544    -0.11500
C705        C  0.93163456  0.61102329  0.94086891    -0.10700
C706        C  0.89880082  0.61883699  0.95040587    -0.01700
C707        C  0.87247181  0.59941290  0.93846960    -0.11800
C708        C  0.87878755  0.57194415  0.91876651    -0.10200
H709        H  0.96387819  0.57663730  0.91672590     0.07700
H710        H  0.95248086  0.62510684  0.95036730     0.11400
H711        H  0.84692756  0.60470639  0.94564246     0.11100
H712        H  0.85763620  0.55767503  0.91035637     0.07700
C713        C  0.75211174  0.35451739  0.64186262    -0.11400
C714        C  0.77905797  0.33223073  0.64677221     0.05700
C715        C  0.77516796  0.30000541  0.63496680    -0.10200
C716        C  0.74519294  0.29012618  0.62001553    -0.11900
C717        C  0.71778062  0.31185394  0.61693172    -0.01600
C718        C  0.72175424  0.34431931  0.62768082    -0.10800
C719        C  0.80966503  0.34165637  0.66647568     0.05700
H720        H  0.79469175  0.28176331  0.63844640     0.07600
H721        H  0.74305739  0.26483702  0.61207542     0.11100
H722        H  0.70137020  0.36181932  0.62522529     0.11400
H723        H  0.75412719  0.37991978  0.64931919     0.07700
C724        C  0.80702353  0.36524532  0.69153354    -0.11500
C725        C  0.83401878  0.37227549  0.71226979    -0.10700
C726        C  0.86476037  0.35559879  0.70946649    -0.01700
C727        C  0.86825309  0.33280410  0.68373390    -0.11800
C728        C  0.84106339  0.32601318  0.66239076    -0.10200
H729        H  0.78357967  0.37749100  0.69646923     0.07700
H730        H  0.83020608  0.39020188  0.73156347     0.11400
H731        H  0.89150085  0.31945870  0.68082107     0.11100
H732        H  0.84463196  0.30812643  0.64306309     0.07700
C733        C  0.07954325  0.39116358  0.02438611    -0.11400
C734        C  0.09450275  0.39229428  0.99250320     0.05700
C735        C  0.12691464  0.40547438  0.98922540    -0.10200
C736        C  0.14363019  0.41812746  0.01695742    -0.11900
C737        C  0.12860897  0.41734507  0.04882314    -0.01600
C738        C  0.09654324  0.40321908  0.05229915    -0.10800
C739        C  0.07589353  0.38142732  0.96237011     0.05700
H740        H  0.13892413  0.40695703  0.96492169     0.07600
H741        H  0.16827614  0.42878594  0.01339141     0.11100
H742        H  0.08416440  0.40237432  0.07643110     0.11400
H743        H  0.05461476  0.38107115  0.02765596     0.07700
C744        C  0.09113928  0.36099065  0.93884453    -0.11500
C745        C  0.07444661  0.35287862  0.90923233    -0.10700
C746        C  0.04243880  0.36564883  0.90217012    -0.01700
C747        C  0.02696193  0.38553385  0.92607301    -0.11800
C748        C  0.04334226  0.39303510  0.95595143    -0.10200
H749        H  0.11615974  0.35158631  0.94323825     0.07700
H750        H  0.08710378  0.33767049  0.89127777     0.11400
H751        H  0.00228723  0.39571907  0.92143690     0.11100
H752        H  0.03105807  0.40899610  0.97348847     0.07700
C753        C  0.99262897  0.58585939  0.10125794    -0.11400
C754        C  0.02364772  0.59560365  0.08721125     0.05700
C755        C  0.02401223  0.62256546  0.06437253    -0.10200
C756        C  0.99438134  0.63896820  0.05549625    -0.11900
C757        C  0.96327950  0.62899299  0.06911678    -0.01600
C758        C  0.96284520  0.60231775  0.09232031    -0.10800
C759        C  0.05526005  0.57726759  0.09569685     0.05700
H760        H  0.04728766  0.63116445  0.05334727     0.07600
H761        H  0.99591834  0.65935567  0.03746769     0.11100
H762        H  0.93944347  0.59376380  0.10311591     0.11400
H763        H  0.99117223  0.56488149  0.11854668     0.07700
C764        C  0.06040160  0.56379744  0.12810286    -0.11500
C765        C  0.08830089  0.54395668  0.13528488    -0.10700
C766        C  0.11218113  0.53743074  0.11045837    -0.01700
C767        C  0.10831433  0.55244031  0.07861088    -0.11800
C768        C  0.08007548  0.57197442  0.07123850    -0.10200
H769        H  0.04245293  0.56799070  0.14783891     0.07700
H770        H  0.09067106  0.53274598  0.16009636     0.11400
H771        H  0.12597376  0.54735129  0.05882564     0.11100
H772        H  0.07695257  0.58160970  0.04589824     0.07700
C773        C  0.42376531  0.49542182  0.21221979    -0.11400
C774        C  0.39475177  0.49943635  0.23148896     0.05700
C775        C  0.39776236  0.51115040  0.26417178    -0.10200
C776        C  0.42911248  0.52138114  0.27615590    -0.11900
C777        C  0.45761669  0.52001958  0.25549156    -0.01600
C778        C  0.45477353  0.50565590  0.22401039    -0.10800
C779        C  0.36178637  0.49461683  0.21530140     0.05700
H780        H  0.37570040  0.51435512  0.27948750     0.07600
H781        H  0.43060539  0.53251736  0.30048226     0.11100
H782        H  0.47632377  0.50395097  0.20769027     0.11400
H783        H  0.42213339  0.48586289  0.18717567     0.07700
C784        C  0.35579408  0.51048171  0.18424007    -0.11500
C785        C  0.32836866  0.50180220  0.16489004    -0.10700
C786        C  0.30611166  0.47709052  0.17614173    -0.01700
C787        C  0.31015735  0.46334386  0.20863150    -0.11800
C788        C  0.33795840  0.47208974  0.22817433    -0.10200
H789        H  0.37346163  0.52842301  0.17410298     0.07700
H790        H  0.32562192  0.51312239  0.14015691     0.11400
H791        H  0.29336642  0.44415913  0.21782385     0.11100
H792        H  0.34202474  0.45970824  0.25218886     0.07700
C793        C  0.24015495  0.60144164  0.02475626    -0.11400
C794        C  0.27440682  0.60903567  0.02117069     0.05700
C795        C  0.29783896  0.58359500  0.02608447    -0.10200
C796        C  0.28772256  0.55181869  0.03569195    -0.11900
C797        C  0.25372910  0.54422525  0.04102240    -0.01600
C798        C  0.22987959  0.56929898  0.03481763    -0.10800
C799        C  0.28689032  0.64302417  0.01284424     0.05700
H800        H  0.32432314  0.58839785  0.02277149     0.07600
H801        H  0.30691443  0.53328999  0.03981862     0.11100
H802        H  0.20352338  0.56439898  0.03883581     0.11400
H803        H  0.22152506  0.62056788  0.02093440     0.07700
C804        C  0.27547104  0.66106378  0.98446474    -0.11500
C805        C  0.29301525  0.68927359  0.97268161    -0.10700
C806        C  0.32206410  0.69974580  0.98923878    -0.01700
C807        C  0.33149416  0.68339639  0.01919305    -0.11800
C808        C  0.31405974  0.65555272  0.03093563    -0.10200
H809        H  0.25467365  0.65192394  0.96999043     0.07700
H810        H  0.28560254  0.70110850  0.94921118     0.11400
H811        H  0.35389540  0.69084848  0.03231901     0.11100
H812        H  0.32316509  0.64249549  0.05313501     0.07700
C813        C  0.26168710  0.39452099  0.53245155    -0.11400
C814        C  0.23184877  0.37892956  0.54234315     0.05700
C815        C  0.20780342  0.39640612  0.56026924    -0.10200
C816        C  0.21384135  0.42890477  0.56895551    -0.11900
C817        C  0.24421567  0.44425128  0.56016486    -0.01600
C818        C  0.26794155  0.42694264  0.54147648    -0.10800
C819        C  0.22540099  0.34454565  0.53372963     0.05700
H820        H  0.18437988  0.38483921  0.56760963     0.07600
H821        H  0.19517433  0.44160959  0.58346480     0.11100
H822        H  0.29159478  0.43820215  0.53443354     0.11400
H823        H  0.28045031  0.38132653  0.51851854     0.07700
C824        C  0.22869802  0.33475655  0.50052257    -0.11500
C825        C  0.21907447  0.30313223  0.49165160    -0.10700
C826        C  0.20619151  0.28083674  0.51595840    -0.01700
C827        C  0.20470140  0.29014420  0.54955634    -0.11800
C828        C  0.21410949  0.32186786  0.55834324    -0.10200
H829        H  0.23727513  0.35204665  0.48122076     0.07700
H830        H  0.22049679  0.29663426  0.46554825     0.11400
H831        H  0.19498958  0.27343499  0.56882128     0.11100
H832        H  0.21185411  0.32899673  0.58420914     0.07700
C833        C  0.06357020  0.20252149  0.62738652    -0.11400
C834        C  0.04218722  0.22991738  0.62422768     0.05700
C835        C  0.03591037  0.24340158  0.59191918    -0.10200
C836        C  0.05248553  0.23102480  0.56373321    -0.11900
C837        C  0.07563518  0.20509026  0.56754360    -0.01600
C838        C  0.08011517  0.19039452  0.59951469    -0.10800
C839        C  0.02957036  0.24600749  0.65499103     0.05700
H840        H  0.01968017  0.26464342  0.58871683     0.07600
H841        H  0.04876213  0.24295575  0.53943915     0.11100
H842        H  0.09750928  0.17010603  0.60317654     0.11400
H843        H  0.06845306  0.19114568  0.65174498     0.07700
C844        C  0.99635693  0.25715510  0.65780443    -0.11500
C845        C  0.98564698  0.27326666  0.68674012    -0.10700
C846        C  0.00813827  0.27902337  0.71314253    -0.01700
C847        C  0.04109228  0.26724951  0.71037738    -0.11800
C848        C  0.05159460  0.25098050  0.68184102    -0.10200
H849        H  0.97875383  0.25346790  0.63762578     0.07700
H850        H  0.96010194  0.28204486  0.68802061     0.11400
H851        H  0.05913381  0.27110499  0.73013944     0.11100
H852        H  0.07743104  0.24308705  0.68039821     0.07700
C853        C  0.92875433  0.07824296  0.36362024    -0.11400
C854        C  0.94804006  0.06816083  0.39151950     0.05700
C855        C  0.93940311  0.03900878  0.40916076    -0.10200
C856        C  0.91169790  0.02058109  0.39941704    -0.11900
C857        C  0.89200260  0.03095965  0.37183334    -0.01600
C858        C  0.90105952  0.05979789  0.35382460    -0.10800
C859        C  0.97713620  0.08806637  0.40192569     0.05700
H860        H  0.95412605  0.03042397  0.43042764     0.07600
H861        H  0.90545473  0.99839426  0.41382447     0.11100
H862        H  0.88620011  0.06865209  0.33277285     0.11400
H863        H  0.93464259  0.10086744  0.34980456     0.07700
C864        C  0.99881837  0.10144592  0.37757413    -0.11500
C865        C  0.02552065  0.12129957  0.38676166    -0.10700
C866        C  0.03130358  0.12829650  0.42059884    -0.01700
C867        C  0.00999128  0.11444867  0.44517250    -0.11800
C868        C  0.98313326  0.09440945  0.43589645    -0.10200
H869        H  0.99515946  0.09649013  0.35130197     0.07700
H870        H  0.04152711  0.13136454  0.36713572     0.11400
H871        H  0.01385141  0.11935159  0.47142438     0.11100
H872        H  0.96662188  0.08450335  0.45517435     0.07700
C873        C  0.12165024  0.33245512  0.33203034    -0.11400
C874        C  0.15493579  0.33741265  0.32133971     0.05700
C875        C  0.18087546  0.32551591  0.34242531    -0.10200
C876        C  0.17363762  0.30666686  0.37150427    -0.11900
C877        C  0.14042354  0.29886150  0.37976209    -0.01600
C878        C  0.11452172  0.31291340  0.36050657    -0.10800
C879        C  0.16226211  0.35247769  0.28735975     0.05700
H880        H  0.20684237  0.32854445  0.33538725     0.07600
H881        H  0.19403180  0.29553076  0.38564962     0.11100
H882        H  0.08868495  0.30701240  0.36632837     0.11400
H883        H  0.10087075  0.34230675  0.31758532     0.07700
C884        C  0.13939664  0.34907661  0.26070560    -0.11500
C885        C  0.14603202  0.36290795  0.22891126    -0.10700
C886        C  0.17606432  0.37990083  0.22252673    -0.01700
C887        C  0.19942771  0.38251924  0.24866198    -0.11800
C888        C  0.19250141  0.36931031  0.28069260    -0.10200
H889        H  0.11635443  0.33537319  0.26409205     0.07700
H890        H  0.12757909  0.36027746  0.20929054     0.11400
H891        H  0.22272381  0.39572505  0.24465360     0.11100
H892        H  0.21070343  0.37295050  0.30029861     0.07700
C893        C  0.09681031  0.99766856  0.61236227    -0.11400
C894        C  0.10724524  0.99427369  0.57907960     0.05700
C895        C  0.10340137  0.96366301  0.56375332    -0.10200
C896        C  0.08907004  0.93694136  0.58146515    -0.11900
C897        C  0.07778889  0.94074349  0.61446340    -0.01600
C898        C  0.08209631  0.97125500  0.62980524    -0.10800
C899        C  0.11978602  0.02355143  0.56016695     0.05700
H900        H  0.11127247  0.96053333  0.53808015     0.07600
H901        H  0.08598042  0.91364089  0.56911052     0.11100
H902        H  0.07386839  0.97478873  0.65531301     0.11400
H903        H  0.09901907  0.02114543  0.62457871     0.07700
C904        C  0.10628120  0.03204223  0.52865816    -0.11500
C905        C  0.11316641  0.06286555  0.51372841    -0.10700
C906        C  0.13401753  0.08542784  0.52990019    -0.01700
C907        C  0.14949923  0.07586939  0.56017480    -0.11800
C908        C  0.14228767  0.04526444  0.57526701    -0.10200
H909        H  0.08877401  0.01574295  0.51658876     0.07700
H910        H  0.10118114  0.06954497  0.49018263     0.11400
H911        H  0.16567566  0.09276740  0.57317276     0.11100
H912        H  0.15324651  0.03906712  0.59943009     0.07700
C913        C  0.38299899  0.99333693  0.10777573    -0.11400
C914        C  0.40774324  0.96858601  0.10908900     0.05700
C915        C  0.43708651  0.97428239  0.12743954    -0.10200
C916        C  0.44177386  0.00398771  0.14376556    -0.11900
C917        C  0.41711545  0.02872680  0.14245721    -0.01600
C918        C  0.38758035  0.02303318  0.12438954    -0.10800
C919        C  0.40357754  0.93745952  0.09047668     0.05700
H920        H  0.45640358  0.95561489  0.12948309     0.07600
H921        H  0.46465003  0.00736536  0.15781616     0.11100
H922        H  0.36805874  0.04154956  0.12298275     0.11400
H923        H  0.36031395  0.99003446  0.09342173     0.07700
C924        C  0.37194135  0.92252382  0.08747358    -0.11500
C925        C  0.36764220  0.89517759  0.06721668    -0.10700
C926        C  0.39499584  0.88178529  0.05032277    -0.01700
C927        C  0.42683089  0.89555237  0.05444209    -0.11800
C928        C  0.43109081  0.92321882  0.07421044    -0.10200
H929        H  0.35033622  0.93249240  0.10005129     0.07700
H930        H  0.34274606  0.88526972  0.06363237     0.11400
H931        H  0.44797493  0.88627985  0.04054396     0.11100
H932        H  0.45565663  0.93441564  0.07533921     0.07700
C933        C  0.26011380  0.16769483  0.38504415    -0.11400
C934        C  0.25886688  0.15489170  0.35283401     0.05700
C935        C  0.22759591  0.15086858  0.33719997    -0.10200
C936        C  0.19819696  0.16079710  0.35304858    -0.11900
C937        C  0.19970641  0.17501177  0.38468095    -0.01600
C938        C  0.23087187  0.17761769  0.40081050    -0.10800
C939        C  0.29020204  0.14717105  0.33501750     0.05700
H940        H  0.22600733  0.14122275  0.31220588     0.07600
H941        H  0.17454709  0.15856222  0.34005355     0.11100
H942        H  0.23277916  0.18798736  0.42547361     0.11400
H943        H  0.28380071  0.17043397  0.39786580     0.07700
C944        C  0.31744990  0.16926427  0.33525906    -0.11500
C945        C  0.34589700  0.16341337  0.31588523    -0.10700
C946        C  0.34725701  0.13552799  0.29590830    -0.01700
C947        C  0.32074894  0.11269282  0.29700401    -0.11800
C948        C  0.29251203  0.11842948  0.31638911    -0.10200
H949        H  0.31611290  0.19179746  0.34921852     0.07700
H950        H  0.36585235  0.18153428  0.31500291     0.11400
H951        H  0.32142015  0.09085537  0.28190003     0.11100
H952        H  0.27215834  0.10075359  0.31625844     0.07700
C953        C  0.37668304  0.26296469  0.16746418    -0.11400
C954        C  0.34869445  0.26087696  0.14630756     0.05700
C955        C  0.33638867  0.22949420  0.13849038    -0.10200
C956        C  0.35119354  0.20082507  0.15213058    -0.11900
C957        C  0.37831554  0.20282204  0.17447176    -0.01600
C958        C  0.39114921  0.23427668  0.18164608    -0.10800
C959        C  0.33043127  0.29120987  0.13502037     0.05700
H960        H  0.31485114  0.22720114  0.12224438     0.07600
H961        H  0.34057775  0.17709911  0.14609347     0.11100
H962        H  0.41201746  0.23675884  0.19870465     0.11400
H963        H  0.38645669  0.28686056  0.17415993     0.07700
C964        C  0.29605157  0.29396196  0.14157914    -0.11500
C965        C  0.27889055  0.32327184  0.13392026    -0.10700
C966        C  0.29546860  0.35043497  0.11883448    -0.01700
C967        C  0.32961688  0.34725894  0.11083927    -0.11800
C968        C  0.34705468  0.31804627  0.11928892    -0.10200
H969        H  0.28267023  0.27376582  0.15384092     0.07700
H970        H  0.25261318  0.32487228  0.14031061     0.11400
H971        H  0.34311774  0.36780170  0.09935844     0.11100
H972        H  0.37354901  0.31648634  0.11385304     0.07700
C973        C  0.60834156  0.11955403  0.01154478    -0.11400
C974        C  0.59800643  0.09579999  0.03551166     0.05700
C975        C  0.60661356  0.06246012  0.03109138    -0.10200
C976        C  0.62531585  0.05314937  0.00329442    -0.11900
C977        C  0.63559160  0.07700465  0.97936168    -0.01600
C978        C  0.62683360  0.11025494  0.98375285    -0.10800
C979        C  0.57756792  0.10562425  0.06455646     0.05700
H980        H  0.59921262  0.04361077  0.04934848     0.07600
H981        H  0.63170629  0.02737655  0.00053532     0.11100
H982        H  0.63451664  0.12926690  0.96578467     0.11400
H983        H  0.60169145  0.14529560  0.01399818     0.07700
C984        C  0.58442785  0.13479452  0.08180264    -0.11500
C985        C  0.56521466  0.14333805  0.10963748    -0.10700
C986        C  0.53876787  0.12289141  0.12051548    -0.01700
C987        C  0.53160040  0.09420474  0.10259693    -0.11800
C988        C  0.55072248  0.08571255  0.07508323    -0.10200
H989        H  0.60511360  0.15058077  0.07424943     0.07700
H990        H  0.57139233  0.16551829  0.12290180     0.11400
H991        H  0.51137363  0.07778609  0.11005629     0.11100
H992        H  0.54433578  0.06352407  0.06191684     0.07700
C993        C  0.52478944  0.18935532  0.36368079    -0.11400
C994        C  0.51331398  0.22015907  0.37412594     0.05700
C995        C  0.48976974  0.23739907  0.35405467    -0.10200
C996        C  0.47871207  0.22441554  0.32365709    -0.11900
C997        C  0.49180538  0.19448950  0.31246620    -0.01600
C998        C  0.51444426  0.17686370  0.33309770    -0.10800
C999        C  0.52927800  0.23558449  0.40353969     0.05700
H1000       H  0.48060122  0.26126668  0.36151480     0.07600
H1001       H  0.46129649  0.23847027  0.30818070     0.11100
H1002       H  0.52476745  0.15360109  0.32515965     0.11400
H1003       H  0.54322753  0.17572155  0.37832071     0.07700
C1004       C  0.53493116  0.21731088  0.43354049    -0.11500
C1005       C  0.55540952  0.22997292  0.45876873    -0.10700
C1006       C  0.57098731  0.26077135  0.45399015    -0.01700
C1007       C  0.56409783  0.27960688  0.42479964    -0.11800
C1008       C  0.54314780  0.26733839  0.40001217    -0.10200
H1009       H  0.52454960  0.19273288  0.43685723     0.07700
H1010       H  0.56069495  0.21494655  0.48096900     0.11400
H1011       H  0.57607449  0.30337690  0.42060660     0.11100
H1012       H  0.53962756  0.28178740  0.37708014     0.07700
C1013       C  0.58989634  0.05594977  0.28375082    -0.11400
C1014       C  0.60204007  0.03095168  0.26330836     0.05700
C1015       C  0.58282294  0.02124925  0.23576015    -0.10200
C1016       C  0.55338170  0.03841578  0.22715525    -0.11900
C1017       C  0.54294709  0.06527991  0.24613925    -0.01600
C1018       C  0.56068826  0.07296405  0.27521696    -0.10800
C1019       C  0.63644695  0.01834501  0.26881479     0.05700
H1020       H  0.59186393  0.00215795  0.21956422     0.07600
H1021       H  0.54052524  0.03266229  0.20414055     0.11100
H1022       H  0.55329561  0.09385373  0.28993891     0.11400
H1023       H  0.60414127  0.06362794  0.30528815     0.07700
C1024       C  0.66285257  0.04101153  0.27109923    -0.11500
C1025       C  0.69502177  0.03032196  0.27927294    -0.10700
C1026       C  0.70164529  0.99662971  0.28567598    -0.01700
C1027       C  0.67555210  0.97366302  0.28172155    -0.11800
C1028       C  0.64317359  0.98446603  0.27317117    -0.10200
H1029       H  0.65837969  0.06722550  0.26725154     0.07700
H1030       H  0.71448474  0.04872280  0.28180541     0.11400
H1031       H  0.67978641  0.94758729  0.28670140     0.11100
H1032       H  0.62313601  0.96657867  0.27141773     0.07700
loop_ 
_geom_bond_atom_site_label_1 
_geom_bond_atom_site_label_2 
_geom_bond_distance 
_geom_bond_site_symmetry_2 
_ccdc_geom_bond_type 
O1           Ni7   1.932       .  S
O1           C22   1.275       .  A
O2          Ni25   1.891       .  S
O2           C11   1.266       .  A
O3           Ni7   1.894       .  S
O3          Ni25   1.894       .  S
O3          Ni19   1.917       .  S
O3           H26   0.966       .  S
C4           O21   1.279       .  A
C4           O13   1.277       .  A
C4          C946   1.468       .  S
O5          Ni24   1.943       .  S
O5           C11   1.276       .  A
O6          Ni24   1.920       .  S
O6            C8   1.274       .  A
Ni7          O10   1.938       .  S
Ni7          O12   1.899       .  S
C8           O18   1.276       .  A
C8          C957   1.491       .  S
O9          Ni25   1.895       .  S
O9           C15   1.271       .  A
O10          C15   1.280       .  A
C11         C917   1.482       .  S
O12          C14   1.268       .  A
O13         Ni24   1.918       .  S
C14          O20   1.275       .  A
C14        C1017   1.471       .  S
C15         C986   1.481       .  S
H16          O17   0.962       .  S
O17         Ni25   1.890       .  S
O17         Ni19   1.904       .  S
O17         Ni24   1.900       .  S
O18         Ni19   1.942       .  S
Ni19         O23   1.921       .  S
Ni19         O21   1.916       .  S
O20         Ni25   1.936       .  S
C22          O23   1.274       .  A
C22         C997   1.482       .  S
O27         Ni33   1.928       .  S
O27          C48   1.274       .  A
O28         Ni51   1.903       .  S
O28          C37   1.270       .  A
O29         Ni33   1.889       .  S
O29         Ni51   1.886       .  S
O29         Ni45   1.907       .  S
O29          H52   0.966       .  S
C30          O47   1.278       .  A
C30          O39   1.276       .  A
C30         C877   1.473       .  S
O31         Ni50   1.926       .  S
O31          C37   1.274       .  A
O32         Ni50   1.917       .  S
O32          C34   1.269       .  A
Ni33         O36   1.918       .  S
Ni33         O38   1.905       .  S
C34          O44   1.266       .  A
C34         C937   1.475       .  S
O35         Ni51   1.919       .  S
O35          C41   1.277       .  A
O36          C41   1.277       .  A
C37         C866   1.478       .  S
O38          C40   1.270       .  A
O39         Ni50   1.925       .  S
C40          O46   1.280       .  A
C40         C837   1.485       .  S
C41         C906   1.473       .  S
H42          O43   0.966       .  S
O43         Ni51   1.908       .  S
O43         Ni45   1.901       .  S
O43         Ni50   1.904       .  S
O44         Ni45   1.910       .  S
Ni45         O49   1.889       .  S
Ni45         O47   1.923       .  S
O46         Ni51   1.951       .  S
C48          O49   1.265       .  A
C48         C826   1.469       .  S
O53         Ni59   1.927       .  S
O53          C74   1.275       .  A
O54         Ni77   1.903       .  S
O54          C63   1.267       .  A
O55         Ni59   1.904       .  S
O55         Ni77   1.905       .  S
O55         Ni71   1.934       .  S
O55          H78   0.966       .  S
C56          O73   1.281       .  A
C56          O65   1.277       .  A
C56         C766   1.485       .  S
O57         Ni76   1.940       .  S
O57          C63   1.275       .  A
O58         Ni76   1.920       .  S
O58          C60   1.274       .  A
Ni59         O62   1.938       .  S
Ni59         O64   1.899       .  S
C60          O70   1.277       .  A
C60         C737   1.490       .  S
O61         Ni77   1.920       .  S
O61          C67   1.275       .  A
O62          C67   1.278       .  A
C63         C886   1.485       .  S
O64          C66   1.269       .  A
O65         Ni76   1.925       .  S
C66          O72   1.275       .  A
C66         C786   1.479       .  S
C67         C966   1.488       .  S
H68          O69   0.966       .  S
O69         Ni77   1.910       .  S
O69         Ni71   1.907       .  S
O69         Ni76   1.908       .  S
O70         Ni71   1.938       .  S
Ni71         O75   1.925       .  S
Ni71         O73   1.933       .  S
O72         Ni77   1.938       .  S
C74          O75   1.275       .  A
C74         C797   1.495       .  S
O79         Ni85   1.934       .  S
O79         C100   1.276   1_455  A
O80        Ni103   1.911       .  S
O80          C89   1.271       .  A
O81         Ni85   1.897   1_655  S
O81        Ni103   1.907       .  S
O81         Ni97   1.936       .  S
O81         H104   0.965       .  S
C82          O99   1.285       .  A
C82          O91   1.280       .  A
C82         C726   1.495       .  S
O83        Ni102   1.957       .  S
O83          C89   1.281       .  A
O84        Ni102   1.941       .  S
O84          C86   1.278       .  A
Ni85         O88   1.938       .  S
Ni85         O90   1.901       .  S
C86          O96   1.270       .  A
C86         C677   1.496       .  S
O87        Ni103   1.916   1_455  S
O87          C93   1.273       .  A
O88          C93   1.278       .  A
C89         C697   1.498       .  S
O90          C92   1.271       .  A
O91        Ni102   1.927       .  S
C92          O98   1.283       .  A
C92         C657   1.494       .  S
C93         C746   1.488       .  S
H94          O95   0.967       .  S
O95        Ni103   1.901       .  S
O95         Ni97   1.904       .  S
O95        Ni102   1.907       .  S
O96         Ni97   1.923       .  S
Ni97        O101   1.921       .  S
Ni97         O99   1.941       .  S
O98        Ni103   1.954   1_455  S
C100        O101   1.273       .  A
C100        C846   1.491   1_655  S
O105       Ni111   1.924       .  S
O105        C126   1.274   1_545  A
O106       Ni129   1.894       .  S
O106        C115   1.267       .  A
O107       Ni111   1.895   1_565  S
O107       Ni129   1.902       .  S
O107       Ni123   1.929       .  S
O107        H130   0.965       .  S
C108        O125   1.282       .  A
C108        O117   1.278       .  A
C108        C577   1.472       .  S
O109       Ni128   1.931       .  S
O109        C115   1.275       .  A
O110       Ni128   1.926       .  S
O110        C112   1.273       .  A
Ni111       O114   1.930       .  S
Ni111       O116   1.903       .  S
C112        O122   1.273       .  A
C112        C606   1.492       .  S
O113       Ni129   1.903       .  S
O113        C119   1.269   1_565  A
O114        C119   1.277       .  A
C115        C617   1.474       .  S
O116        C118   1.270       .  A
O117       Ni128   1.917       .  S
C118        O124   1.277   1_545  A
C118        C646   1.478       .  S
C119        C857   1.479       .  S
H120        O121   0.966       .  S
O121       Ni129   1.892       .  S
O121       Ni123   1.894       .  S
O121       Ni128   1.895       .  S
O122       Ni123   1.933       .  S
Ni123       O127   1.914       .  S
Ni123       O125   1.926       .  S
O124       Ni129   1.939       .  S
C126        O127   1.272       .  A
C126       C1026   1.485       .  S
O131       Ni137   1.934       .  S
O131        C152   1.274   1_455  A
O132       Ni155   1.907       .  S
O132        C141   1.269       .  A
O133       Ni137   1.904       .  S
O133       Ni155   1.906       .  S
O133       Ni149   1.920       .  S
O133        H156   0.966       .  S
C134        O151   1.278       .  A
C134        O143   1.276   1_655  A
C134        C626   1.477       .  S
O135       Ni154   1.921       .  S
O135        C141   1.270       .  A
O136       Ni154   1.908       .  S
O136        C138   1.266       .  A
Ni137       O140   1.932       .  S
Ni137       O142   1.897       .  S
C138        O148   1.268       .  A
C138        C897   1.473       .  S
O139       Ni155   1.897       .  S
O139        C145   1.270       .  A
O140        C145   1.277       .  A
C141        C537   1.477       .  S
O142        C144   1.270       .  A
O143       Ni154   1.912       .  S
C144        O150   1.276       .  A
C144        C506   1.472       .  S
C145        C557   1.479       .  S
H146        O147   0.966       .  S
O147       Ni155   1.895       .  S
O147       Ni149   1.897       .  S
O147       Ni154   1.902       .  S
O148       Ni149   1.915       .  S
Ni149       O153   1.894       .  S
Ni149       O151   1.923   1_455  S
O150       Ni155   1.935       .  S
C152        O153   1.265   1_655  A
C152        C526   1.473       .  S
O157       Ni163   1.915   1_554  S
O157        C178   1.272       .  A
O158       Ni181   1.899       .  S
O158        C167   1.269       .  A
O159       Ni163   1.893       .  S
O159       Ni181   1.904       .  S
O159       Ni175   1.926       .  S
O159        H182   0.966       .  S
C160        O177   1.280       .  A
C160        O169   1.276   1_554  A
C160        C926   1.465       .  S
O161       Ni180   1.930       .  S
O161        C167   1.273       .  A
O162       Ni180   1.914       .  S
O162        C164   1.271       .  A
Ni163       O166   1.922       .  S
Ni163       O168   1.902       .  S
C164        O174   1.272       .  A
C164        C457   1.487       .  S
O165       Ni181   1.912       .  S
O165        C171   1.272       .  A
O166        C171   1.275       .  A
C167        C566   1.476       .  S
O168        C170   1.269       .  A
O169       Ni180   1.919       .  S
C170        O176   1.279       .  A
C170        C806   1.481       .  S
C171        C486   1.482       .  S
H172        O173   0.966       .  S
O173       Ni181   1.900       .  S
O173       Ni175   1.899       .  S
O173       Ni180   1.900       .  S
O174       Ni175   1.929       .  S
Ni175       O179   1.917   1_556  S
Ni175       O177   1.924   1_556  S
O176       Ni181   1.950       .  S
C178        O179   1.271       .  A
C178        C446   1.482       .  S
O183       Ni189   1.928       .  S
O183        C204   1.274       .  A
O184       Ni207   1.896       .  S
O184        C193   1.271       .  A
O185       Ni189   1.888       .  S
O185       Ni207   1.886       .  S
O185       Ni201   1.911       .  S
O185        H208   0.966       .  S
C186        O203   1.281       .  A
C186        O195   1.279       .  A
C186        C397   1.470       .  S
O187       Ni206   1.939       .  S
O187        C193   1.278       .  A
O188       Ni206   1.930       .  S
O188        C190   1.273       .  A
Ni189       O192   1.923       .  S
Ni189       O194   1.903       .  S
C190        O200   1.266       .  A
C190        C417   1.488       .  S
O191       Ni207   1.917       .  S
O191        C197   1.275       .  A
O192        C197   1.278       .  A
C193        C477   1.478       .  S
O194        C196   1.270       .  A
O195       Ni206   1.931       .  S
C196        O202   1.282       .  A
C196        C666   1.489       .  S
C197        C546   1.480       .  S
H198        O199   0.967       .  S
O199       Ni207   1.903       .  S
O199       Ni201   1.891       .  S
O199       Ni206   1.902       .  S
O200       Ni201   1.911       .  S
Ni201       O205   1.889       .  S
Ni201       O203   1.924       .  S
O202       Ni207   1.958       .  S
C204        O205   1.265       .  A
C204        C817   1.468       .  S
O209       Ni215   1.927       .  S
O209        C230   1.274       .  A
O210       Ni233   1.892       .  S
O210        C219   1.265       .  A
O211       Ni215   1.908       .  S
O211       Ni233   1.909       .  S
O211       Ni227   1.938       .  S
O211        H234   0.966       .  S
C212        O229   1.282       .  A
C212        O221   1.276       .  A
C212        C426   1.480       .  S
O213       Ni232   1.934       .  S
O213        C219   1.274       .  A
O214       Ni232   1.917       .  S
O214        C216   1.272       .  A
Ni215       O218   1.939       .  S
Ni215       O220   1.902       .  S
C216        O226   1.272       .  A
C216        C366   1.483       .  S
O217       Ni233   1.904       .  S
O217        C223   1.268       .  A
O218        C223   1.277       .  A
C219        C586   1.474       .  S
O220        C222   1.270       .  A
O221       Ni232   1.914       .  S
C222        O228   1.275       .  A
C222        C437   1.472       .  S
C223        C377   1.490       .  S
H224        O225   0.966       .  S
O225       Ni233   1.897       .  S
O225       Ni227   1.900       .  S
O225       Ni232   1.904       .  S
O226       Ni227   1.928       .  S
Ni227       O231   1.912       .  S
Ni227       O229   1.935       .  S
O228       Ni233   1.932       .  S
C230        O231   1.270       .  A
C230        C777   1.481       .  S
O235       Ni241   1.924       .  S
O235        C256   1.276       .  A
O236       Ni259   1.889       .  S
O236        C245   1.266       .  A
O237       Ni241   1.895       .  S
O237       Ni259   1.895       .  S
O237       Ni253   1.932       .  S
O237        H260   0.965       .  S
C238        O255   1.286       .  A
C238        O247   1.280       .  A
C238        C346   1.481       .  S
O239       Ni258   1.953       .  S
O239        C245   1.280       .  A
O240       Ni258   1.937       .  S
O240        C242   1.277       .  A
Ni241       O244   1.930       .  S
Ni241       O246   1.913       .  S
C242        O252   1.272       .  A
C242        C717   1.492       .  S
O243       Ni259   1.916       .  S
O243        C249   1.273       .  A
O244        C249   1.277       .  A
C245        C406   1.487       .  S
O246        C248   1.270       .  A
O247       Ni258   1.926       .  S
C248        O254   1.275       .  A
C248       C1006   1.474       .  S
C249        C357   1.481       .  S
H250        O251   0.967       .  S
O251       Ni259   1.892       .  S
O251       Ni253   1.898       .  S
O251       Ni258   1.897       .  S
O252       Ni253   1.929       .  S
Ni253       O257   1.922       .  S
Ni253       O255   1.935       .  S
O254       Ni259   1.937       .  S
C256        O257   1.276       .  A
C256        C637   1.481       .  S
O261       Ni267   1.938       .  S
O261        C282   1.278   1_565  A
O262       Ni285   1.907       .  S
O262        C271   1.271       .  A
O263       Ni267   1.895   1_545  S
O263       Ni285   1.896       .  S
O263       Ni279   1.931       .  S
O263        H286   0.966       .  S
C264        O281   1.288       .  A
C264        O273   1.278       .  A
C264        C686   1.493       .  S
O265       Ni284   1.922       .  S
O265        C271   1.271       .  A
O266       Ni284   1.927       .  S
O266        C268   1.270       .  A
Ni267       O270   1.937       .  S
Ni267       O272   1.901       .  S
C268        O278   1.264       .  A
C268        C337   1.485       .  S
O269       Ni285   1.909   1_565  S
O269        C275   1.272       .  A
O270        C275   1.279       .  A
C271        C977   1.476       .  S
O272        C274   1.271       .  A
O273       Ni284   1.918       .  S
C274        O280   1.286       .  A
C274        C317   1.492       .  S
C275        C466   1.481       .  S
H276        O277   0.966       .  S
O277       Ni285   1.908       .  S
O277       Ni279   1.892       .  S
O277       Ni284   1.908       .  S
O278       Ni279   1.908       .  S
Ni279       O283   1.894       .  S
Ni279       O281   1.949       .  S
O280       Ni285   1.964   1_565  S
C282        O283   1.268       .  A
C282        C517   1.476       .  S
O287       Ni293   1.931       .  S
O287        C308   1.276   1_554  A
O288       Ni311   1.906       .  S
O288        C297   1.272       .  A
O289       Ni293   1.895       .  S
O289       Ni311   1.901       .  S
O289       Ni305   1.935       .  S
O289        H312   0.966       .  S
C290        O307   1.285       .  A
C290        O299   1.279   1_556  A
C290        C706   1.487       .  S
O291       Ni310   1.944       .  S
O291        C297   1.279       .  A
O292       Ni310   1.936       .  S
O292        C294   1.275       .  A
Ni293       O296   1.937       .  S
Ni293       O298   1.902       .  S
C294        O304   1.267       .  A
C294        C757   1.495       .  S
O295       Ni311   1.920       .  S
O295        C301   1.274       .  A
O296        C301   1.278       .  A
C297        C386   1.489       .  S
O298        C300   1.272       .  A
O299       Ni310   1.934       .  S
C300        O306   1.286       .  A
C300        C326   1.501       .  S
C301        C597   1.494       .  S
H302        O303   0.966       .  S
O303       Ni311   1.910       .  S
O303       Ni305   1.897       .  S
O303       Ni310   1.907       .  S
O304       Ni305   1.916       .  S
Ni305       O309   1.904   1_554  S
Ni305       O307   1.940   1_554  S
O306       Ni311   1.963       .  S
C308        O309   1.269       .  A
C308        C497   1.479       .  S
C313        C314   1.404       .  A
C313        C318   1.398       .  A
C313        H323   1.082       .  S
C314        C319   1.506       .  S
C314        C315   1.418       .  A
C315        C316   1.411       .  A
C315        H320   1.082   1_556  S
C316        C317   1.403       .  A
C316        H321   1.083       .  S
C317        C318   1.410       .  A
C318        H322   1.084       .  S
C319        C324   1.416   1_556  A
C319        C328   1.403   1_556  A
C324        C325   1.412       .  A
C324        H329   1.082   1_554  S
C325        C326   1.406       .  A
C325        H330   1.083       .  S
C326        C327   1.412       .  A
C327        C328   1.396       .  A
C327        H331   1.083       .  S
C328        H332   1.082       .  S
C333        C334   1.412       .  A
C333        C338   1.402       .  A
C333        H343   1.083       .  S
C334        C339   1.494       .  S
C334        C335   1.403       .  A
C335        C336   1.398       .  A
C335        H340   1.083       .  S
C336        C337   1.409       .  A
C336        H341   1.083       .  S
C337        C338   1.403       .  A
C338        H342   1.083       .  S
C339        C344   1.402       .  A
C339        C348   1.413       .  A
C344        C345   1.394       .  A
C344        H349   1.083       .  S
C345        C346   1.407       .  A
C345        H350   1.084       .  S
C346        C347   1.403       .  A
C347        C348   1.407       .  A
C347        H351   1.083       .  S
C348        H352   1.082       .  S
C353        C354   1.407       .  A
C353        C358   1.402       .  A
C353        H363   1.083       .  S
C354        C359   1.486       .  S
C354        C355   1.405       .  A
C355        C356   1.398       .  A
C355        H360   1.083       .  S
C356        C357   1.407       .  A
C356        H361   1.083       .  S
C357        C358   1.405       .  A
C358        H362   1.083       .  S
C359        C364   1.406       .  A
C359        C368   1.405       .  A
C364        C365   1.400       .  A
C364        H369   1.083       .  S
C365        C366   1.406       .  A
C365        H370   1.083       .  S
C366        C367   1.407       .  A
C367        C368   1.399       .  A
C367        H371   1.083       .  S
C368        H372   1.083       .  S
C373        C374   1.410       .  A
C373        C378   1.402       .  A
C373        H383   1.082       .  S
C374        C379   1.494       .  S
C374        C375   1.405       .  A
C375        C376   1.399       .  A
C375        H380   1.083       .  S
C376        C377   1.410       .  A
C376        H381   1.083       .  S
C377        C378   1.405       .  A
C378        H382   1.083       .  S
C379        C384   1.405       .  A
C379        C388   1.409       .  A
C384        C385   1.398       .  A
C384        H389   1.083       .  S
C385        C386   1.406       .  A
C385        H390   1.083       .  S
C386        C387   1.407       .  A
C387        C388   1.403       .  A
C387        H391   1.083       .  S
C388        H392   1.083       .  S
C393        C394   1.408       .  A
C393        C398   1.400       .  A
C393        H403   1.083       .  S
C394        C399   1.491       .  S
C394        C395   1.408       .  A
C395        C396   1.401       .  A
C395        H400   1.083       .  S
C396        C397   1.402       .  A
C396        H401   1.083       .  S
C397        C398   1.402       .  A
C398        H402   1.084       .  S
C399        C404   1.405       .  A
C399        C408   1.408       .  A
C404        C405   1.399       .  A
C404        H409   1.083       .  S
C405        C406   1.409       .  A
C405        H410   1.083       .  S
C406        C407   1.405       .  A
C407        C408   1.402       .  A
C407        H411   1.083       .  S
C408        H412   1.083       .  S
C413        C414   1.411       .  A
C413        C418   1.402       .  A
C413        H423   1.083       .  S
C414        C419   1.491       .  S
C414        C415   1.402       .  A
C415        C416   1.398       .  A
C415        H420   1.083       .  S
C416        C417   1.411       .  A
C416        H421   1.083       .  S
C417        C418   1.403       .  A
C418        H422   1.083       .  S
C419        C424   1.401       .  A
C419        C428   1.413       .  A
C424        C425   1.392       .  A
C424        H429   1.083       .  S
C425        C426   1.406       .  A
C425        H430   1.084       .  S
C426        C427   1.404       .  A
C427        C428   1.408       .  A
C427        H431   1.083       .  S
C428        H432   1.083       .  S
C433        C434   1.406       .  A
C433        C438   1.392       .  A
C433        H443   1.083       .  S
C434        C439   1.485       .  S
C434        C435   1.406       .  A
C435        C436   1.404       .  A
C435        H440   1.083       .  S
C436        C437   1.406       .  A
C436        H441   1.083       .  S
C437        C438   1.401       .  A
C438        H442   1.084       .  S
C439        C444   1.402       .  A
C439        C448   1.408       .  A
C444        C445   1.388       .  A
C444        H449   1.083       .  S
C445        C446   1.405       .  A
C445        H450   1.083       .  S
C446        C447   1.408       .  A
C447        C448   1.407       .  A
C447        H451   1.083       .  S
C448        H452   1.083       .  S
C453        C454   1.406       .  A
C453        C458   1.399       .  A
C453        H463   1.083       .  S
C454        C459   1.489       .  S
C454        C455   1.405       .  A
C455        C456   1.400       .  A
C455        H460   1.083       .  S
C456        C457   1.407       .  A
C456        H461   1.083       .  S
C457        C458   1.407       .  A
C458        H462   1.083       .  S
C459        C464   1.408       .  A
C459        C468   1.405       .  A
C464        C465   1.403       .  A
C464        H469   1.083       .  S
C465        C466   1.404       .  A
C465        H470   1.083       .  S
C466        C467   1.406       .  A
C467        C468   1.397       .  A
C467        H471   1.083       .  S
C468        H472   1.083       .  S
C473        C474   1.406       .  A
C473        C478   1.399       .  A
C473        H483   1.083       .  S
C474        C479   1.482       .  S
C474        C475   1.404       .  A
C475        C476   1.394       .  A
C475        H480   1.083       .  S
C476        C477   1.405       .  A
C476        H481   1.083       .  S
C477        C478   1.405       .  A
C478        H482   1.083       .  S
C479        C484   1.404       .  A
C479        C488   1.405       .  A
C484        C485   1.398       .  A
C484        H489   1.083       .  S
C485        C486   1.408       .  A
C485        H490   1.083       .  S
C486        C487   1.405       .  A
C487        C488   1.396       .  A
C487        H491   1.083       .  S
C488        H492   1.083       .  S
C493        C494   1.404       .  A
C493        C498   1.401       .  A
C493        H503   1.083       .  S
C494        C499   1.480   1_655  S
C494        C495   1.404       .  A
C495        C496   1.393       .  A
C495        H500   1.083   1_655  S
C496        C497   1.404       .  A
C496        H501   1.083       .  S
C497        C498   1.408       .  A
C498        H502   1.083       .  S
C499        C504   1.407       .  A
C499        C508   1.403   1_455  A
C504        C505   1.404       .  A
C504        H509   1.083       .  S
C505        C506   1.405       .  A
C505        H510   1.083       .  S
C506        C507   1.403       .  A
C507        C508   1.390   1_455  A
C507        H511   1.084   1_455  S
C508        H512   1.083       .  S
C513        C514   1.400   1_545  A
C513        C518   1.395       .  A
C513        H523   1.083       .  S
C514        C519   1.470       .  S
C514        C515   1.403       .  A
C515        C516   1.397       .  A
C515        H520   1.083       .  S
C516        C517   1.405   1_565  A
C516        H521   1.083       .  S
C517        C518   1.407       .  A
C518        H522   1.083       .  S
C519        C524   1.401       .  A
C519        C528   1.403       .  A
C524        C525   1.396       .  A
C524        H529   1.083       .  S
C525        C526   1.406       .  A
C525        H530   1.083       .  S
C526        C527   1.404       .  A
C527        C528   1.396       .  A
C527        H531   1.083       .  S
C528        H532   1.083   1_565  S
C533        C534   1.407       .  A
C533        C538   1.399       .  A
C533        H543   1.083       .  S
C534        C539   1.481       .  S
C534        C535   1.402       .  A
C535        C536   1.392       .  A
C535        H540   1.083       .  S
C536        C537   1.407       .  A
C536        H541   1.083       .  S
C537        C538   1.404       .  A
C538        H542   1.083       .  S
C539        C544   1.403       .  A
C539        C548   1.406       .  A
C544        C545   1.396       .  A
C544        H549   1.083       .  S
C545        C546   1.408       .  A
C545        H550   1.083       .  S
C546        C547   1.404       .  A
C547        C548   1.396       .  A
C547        H551   1.083       .  S
C548        H552   1.083       .  S
C553        C554   1.406       .  A
C553        C558   1.398       .  A
C553        H563   1.083       .  S
C554        C559   1.479       .  S
C554        C555   1.401       .  A
C555        C556   1.393       .  A
C555        H560   1.083       .  S
C556        C557   1.408       .  A
C556        H561   1.083       .  S
C557        C558   1.404       .  A
C558        H562   1.083       .  S
C559        C564   1.402       .  A
C559        C568   1.406       .  A
C564        C565   1.394       .  A
C564        H569   1.083       .  S
C565        C566   1.407       .  A
C565        H570   1.083       .  S
C566        C567   1.404       .  A
C567        C568   1.397       .  A
C567        H571   1.083       .  S
C568        H572   1.083       .  S
C573        C574   1.404       .  A
C573        C578   1.390       .  A
C573        H583   1.082       .  S
C574        C579   1.490       .  S
C574        C575   1.412       .  A
C575        C576   1.404       .  A
C575        H580   1.082       .  S
C576        C577   1.401       .  A
C576        H581   1.083       .  S
C577        C578   1.404       .  A
C578        H582   1.084       .  S
C579        C584   1.407       .  A
C579        C588   1.409       .  A
C584        C585   1.398       .  A
C584        H589   1.082       .  S
C585        C586   1.404       .  A
C585        H590   1.083       .  S
C586        C587   1.402       .  A
C587        C588   1.396       .  A
C587        H591   1.083       .  S
C588        H592   1.082       .  S
C593        C594   1.406       .  A
C593        C598   1.407       .  A
C593        H603   1.083       .  S
C594        C599   1.488       .  S
C594        C595   1.403       .  A
C595        C596   1.398       .  A
C595        H600   1.083       .  S
C596        C597   1.409       .  A
C596        H601   1.083       .  S
C597        C598   1.410       .  A
C598        H602   1.083       .  S
C599        C604   1.406       .  A
C599        C608   1.403       .  A
C604        C605   1.407       .  A
C604        H609   1.083       .  S
C605        C606   1.409       .  A
C605        H610   1.083       .  S
C606        C607   1.408       .  A
C607        C608   1.398       .  A
C607        H611   1.083       .  S
C608        H612   1.083       .  S
C613        C614   1.408       .  A
C613        C618   1.398       .  A
C613        H623   1.082       .  S
C614        C619   1.489       .  S
C614        C615   1.408       .  A
C615        C616   1.394       .  A
C615        H620   1.082       .  S
C616        C617   1.403       .  A
C616        H621   1.083       .  S
C617        C618   1.403       .  A
C618        H622   1.083       .  S
C619        C624   1.404       .  A
C619        C628   1.411       .  A
C624        C625   1.388       .  A
C624        H629   1.082       .  S
C625        C626   1.405       .  A
C625        H630   1.083       .  S
C626        C627   1.404       .  A
C627        C628   1.403       .  A
C627        H631   1.083       .  S
C628        H632   1.082       .  S
C633        C634   1.408       .  A
C633        C638   1.407       .  A
C633        H643   1.083       .  S
C634        C639   1.488       .  S
C634        C635   1.405       .  A
C635        C636   1.393       .  A
C635        H640   1.083       .  S
C636        C637   1.404       .  A
C636        H641   1.084       .  S
C637        C638   1.407       .  A
C638        H642   1.083       .  S
C639        C644   1.408       .  A
C639        C648   1.405       .  A
C644        C645   1.407       .  A
C644        H649   1.083       .  S
C645        C646   1.406       .  A
C645        H650   1.083       .  S
C646        C647   1.404       .  A
C647        C648   1.392       .  A
C647        H651   1.084       .  S
C648        H652   1.083       .  S
C653        C654   1.403       .  A
C653        C658   1.397       .  A
C653        H663   1.083       .  S
C654        C659   1.498       .  S
C654        C655   1.413       .  A
C655        C656   1.408       .  A
C655        H660   1.082       .  S
C656        C657   1.406       .  A
C656        H661   1.083       .  S
C657        C658   1.411       .  A
C658        H662   1.083       .  S
C659        C664   1.415       .  A
C659        C668   1.402       .  A
C664        C665   1.409       .  A
C664        H669   1.083       .  S
C665        C666   1.404       .  A
C665        H670   1.083       .  S
C666        C667   1.409       .  A
C667        C668   1.397       .  A
C667        H671   1.083       .  S
C668        H672   1.083       .  S
C673        C674   1.415       .  A
C673        C678   1.408       .  A
C673        H683   1.082       .  S
C674        C679   1.505       .  S
C674        C675   1.405       .  A
C675        C676   1.401       .  A
C675        H680   1.082       .  S
C676        C677   1.410       .  A
C676        H681   1.083       .  S
C677        C678   1.405       .  A
C678        H682   1.083       .  S
C679        C684   1.405       .  A
C679        C688   1.415       .  A
C684        C685   1.399       .  A
C684        H689   1.082       .  S
C685        C686   1.410       .  A
C685        H690   1.083       .  S
C686        C687   1.404       .  A
C687        C688   1.409       .  A
C687        H691   1.083       .  S
C688        H692   1.082       .  S
C693        C694   1.411       .  A
C693        C698   1.408       .  A
C693        H703   1.082       .  S
C694        C699   1.511       .  S
C694        C695   1.412       .  A
C695        C696   1.404       .  A
C695        H700   1.082       .  S
C696        C697   1.405       .  A
C696        H701   1.083       .  S
C697        C698   1.409       .  A
C698        H702   1.083       .  S
C699        C704   1.414       .  A
C699        C708   1.411       .  A
C704        C705   1.410       .  A
C704        H709   1.082       .  S
C705        C706   1.405       .  A
C705        H710   1.083       .  S
C706        C707   1.404       .  A
C707        C708   1.402       .  A
C707        H711   1.083       .  S
C708        H712   1.082       .  S
C713        C714   1.416       .  A
C713        C718   1.405       .  A
C713        H723   1.081       .  S
C714        C719   1.508       .  S
C714        C715   1.407       .  A
C715        C716   1.401       .  A
C715        H720   1.081       .  S
C716        C717   1.409       .  A
C716        H721   1.083       .  S
C717        C718   1.402       .  A
C718        H722   1.083       .  S
C719        C724   1.405       .  A
C719        C728   1.417       .  A
C724        C725   1.394       .  A
C724        H729   1.081       .  S
C725        C726   1.408       .  A
C725        H730   1.083       .  S
C726        C727   1.406       .  A
C727        C728   1.412       .  A
C727        H731   1.083       .  S
C728        H732   1.082       .  S
C733        C734   1.406   1_554  A
C733        C738   1.403       .  A
C733        H743   1.083       .  S
C734        C739   1.490       .  S
C734        C735   1.405       .  A
C735        C736   1.401   1_556  A
C735        H740   1.083       .  S
C736        C737   1.407       .  A
C736        H741   1.083       .  S
C737        C738   1.408       .  A
C738        H742   1.083       .  S
C739        C744   1.407       .  A
C739        C748   1.405       .  A
C744        C745   1.404       .  A
C744        H749   1.083       .  S
C745        C746   1.406       .  A
C745        H750   1.083       .  S
C746        C747   1.408       .  A
C747        C748   1.401       .  A
C747        H751   1.083       .  S
C748        H752   1.083       .  S
C753        C754   1.412   1_655  A
C753        C758   1.406       .  A
C753        H763   1.082       .  S
C754        C759   1.500       .  S
C754        C755   1.404       .  A
C755        C756   1.399   1_455  A
C755        H760   1.083       .  S
C756        C757   1.411       .  A
C756        H761   1.083       .  S
C757        C758   1.405       .  A
C758        H762   1.083       .  S
C759        C764   1.406       .  A
C759        C768   1.412       .  A
C764        C765   1.400       .  A
C764        H769   1.082       .  S
C765        C766   1.406       .  A
C765        H770   1.083       .  S
C766        C767   1.404       .  A
C767        C768   1.405       .  A
C767        H771   1.083       .  S
C768        H772   1.082       .  S
C773        C774   1.404       .  A
C773        C778   1.392       .  A
C773        H783   1.084       .  S
C774        C779   1.482       .  S
C774        C775   1.405       .  A
C775        C776   1.407       .  A
C775        H780   1.083       .  S
C776        C777   1.409       .  A
C776        H781   1.083       .  S
C777        C778   1.403       .  A
C778        H782   1.083       .  S
C779        C784   1.403       .  A
C779        C788   1.406       .  A
C784        C785   1.391       .  A
C784        H789   1.084       .  S
C785        C786   1.403       .  A
C785        H790   1.084       .  S
C786        C787   1.408       .  A
C787        C788   1.408       .  A
C787        H791   1.083       .  S
C788        H792   1.083       .  S
C793        C794   1.409       .  A
C793        C798   1.413       .  A
C793        H803   1.083       .  S
C794        C799   1.493       .  S
C794        C795   1.403       .  A
C795        C796   1.393       .  A
C795        H800   1.083       .  S
C796        C797   1.408       .  A
C796        H801   1.083       .  S
C797        C798   1.410       .  A
C798        H802   1.083       .  S
C799        C804   1.408   1_554  A
C799        C808   1.406       .  A
C804        C805   1.410       .  A
C804        H809   1.083       .  S
C805        C806   1.406       .  A
C805        H810   1.083       .  S
C806        C807   1.404   1_556  A
C807        C808   1.396       .  A
C807        H811   1.084       .  S
C808        H812   1.083       .  S
C813        C814   1.401       .  A
C813        C818   1.393       .  A
C813        H823   1.083       .  S
C814        C819   1.465       .  S
C814        C815   1.401       .  A
C815        C816   1.391       .  A
C815        H820   1.083       .  S
C816        C817   1.404       .  A
C816        H821   1.083       .  S
C817        C818   1.406       .  A
C818        H822   1.083       .  S
C819        C824   1.400       .  A
C819        C828   1.402       .  A
C824        C825   1.391       .  A
C824        H829   1.083       .  S
C825        C826   1.406       .  A
C825        H830   1.083       .  S
C826        C827   1.404       .  A
C827        C828   1.392       .  A
C827        H831   1.083       .  S
C828        H832   1.083       .  S
C833        C834   1.404       .  A
C833        C838   1.395       .  A
C833        H843   1.083       .  S
C834        C839   1.493       .  S
C834        C835   1.410       .  A
C835        C836   1.409       .  A
C835        H840   1.083       .  S
C836        C837   1.405       .  A
C836        H841   1.083       .  S
C837        C838   1.406       .  A
C838        H842   1.084       .  S
C839        C844   1.408   1_455  A
C839        C848   1.405       .  A
C844        C845   1.408       .  A
C844        H849   1.083       .  S
C845        C846   1.409   1_655  A
C845        H850   1.083       .  S
C846        C847   1.406       .  A
C847        C848   1.396       .  A
C847        H851   1.083       .  S
C848        H852   1.083       .  S
C853        C854   1.407       .  A
C853        C858   1.396       .  A
C853        H863   1.083       .  S
C854        C859   1.480       .  S
C854        C855   1.402       .  A
C855        C856   1.396       .  A
C855        H860   1.083       .  S
C856        C857   1.409       .  A
C856        H861   1.083   1_545  S
C857        C858   1.403       .  A
C858        H862   1.083       .  S
C859        C864   1.401       .  A
C859        C868   1.408       .  A
C864        C865   1.390   1_655  A
C864        H869   1.083       .  S
C865        C866   1.407       .  A
C865        H870   1.083       .  S
C866        C867   1.405       .  A
C867        C868   1.401   1_455  A
C867        H871   1.083       .  S
C868        H872   1.083       .  S
C873        C874   1.410       .  A
C873        C878   1.398       .  A
C873        H883   1.082       .  S
C874        C879   1.502       .  S
C874        C875   1.413       .  A
C875        C876   1.403       .  A
C875        H880   1.081       .  S
C876        C877   1.402       .  A
C876        H881   1.084       .  S
C877        C878   1.402       .  A
C878        H882   1.084       .  S
C879        C884   1.412       .  A
C879        C888   1.409       .  A
C884        C885   1.400       .  A
C884        H889   1.081       .  S
C885        C886   1.403       .  A
C885        H890   1.083       .  S
C886        C887   1.406       .  A
C887        C888   1.401       .  A
C887        H891   1.083       .  S
C888        H892   1.081       .  S
C893        C894   1.403       .  A
C893        C898   1.391       .  A
C893        H903   1.083   1_565  S
C894        C899   1.476   1_565  S
C894        C895   1.405       .  A
C895        C896   1.400       .  A
C895        H900   1.083       .  S
C896        C897   1.405       .  A
C896        H901   1.083       .  S
C897        C898   1.404       .  A
C898        H902   1.083       .  S
C899        C904   1.404       .  A
C899        C908   1.404       .  A
C904        C905   1.396       .  A
C904        H909   1.083       .  S
C905        C906   1.405       .  A
C905        H910   1.083       .  S
C906        C907   1.404       .  A
C907        C908   1.394       .  A
C907        H911   1.083       .  S
C908        H912   1.083       .  S
C913        C914   1.409       .  A
C913        C918   1.400   1_565  A
C913        H923   1.083       .  S
C914        C919   1.489       .  S
C914        C915   1.405       .  A
C915        C916   1.395   1_565  A
C915        H920   1.083       .  S
C916        C917   1.406       .  A
C916        H921   1.083       .  S
C917        C918   1.405       .  A
C918        H922   1.083       .  S
C919        C924   1.407       .  A
C919        C928   1.409       .  A
C924        C925   1.399       .  A
C924        H929   1.083       .  S
C925        C926   1.402       .  A
C925        H930   1.083       .  S
C926        C927   1.400       .  A
C927        C928   1.397       .  A
C927        H931   1.084       .  S
C928        H932   1.082       .  S
C933        C934   1.400       .  A
C933        C938   1.392       .  A
C933        H943   1.083       .  S
C934        C939   1.478       .  S
C934        C935   1.408       .  A
C935        C936   1.399       .  A
C935        H940   1.083       .  S
C936        C937   1.403       .  A
C936        H941   1.083       .  S
C937        C938   1.407       .  A
C938        H942   1.083       .  S
C939        C944   1.409       .  A
C939        C948   1.401       .  A
C944        C945   1.399       .  A
C944        H949   1.083       .  S
C945        C946   1.400       .  A
C945        H950   1.083       .  S
C946        C947   1.406       .  A
C947        C948   1.392       .  A
C947        H951   1.084       .  S
C948        H952   1.083       .  S
C953        C954   1.405       .  A
C953        C958   1.404       .  A
C953        H963   1.083       .  S
C954        C959   1.489       .  S
C954        C955   1.405       .  A
C955        C956   1.401       .  A
C955        H960   1.083       .  S
C956        C957   1.407       .  A
C956        H961   1.083       .  S
C957        C958   1.409       .  A
C958        H962   1.083       .  S
C959        C964   1.404       .  A
C959        C968   1.407       .  A
C964        C965   1.398       .  A
C964        H969   1.083       .  S
C965        C966   1.406       .  A
C965        H970   1.083       .  S
C966        C967   1.408       .  A
C967        C968   1.407       .  A
C967        H971   1.083       .  S
C968        H972   1.083       .  S
C973        C974   1.401       .  A
C973        C978   1.393   1_554  A
C973        H983   1.083       .  S
C974        C979   1.482       .  S
C974        C975   1.409       .  A
C975        C976   1.398       .  A
C975        H980   1.083       .  S
C976        C977   1.402   1_554  A
C976        H981   1.083       .  S
C977        C978   1.407       .  A
C978        H982   1.083       .  S
C979        C984   1.409       .  A
C979        C988   1.400       .  A
C984        C985   1.402       .  A
C984        H989   1.083       .  S
C985        C986   1.404       .  A
C985        H990   1.083       .  S
C986        C987   1.409       .  A
C987        C988   1.389       .  A
C987        H991   1.083       .  S
C988        H992   1.083       .  S
C993        C994   1.403       .  A
C993        C998   1.396       .  A
C993       H1003   1.083       .  S
C994        C999   1.488       .  S
C994        C995   1.410       .  A
C995        C996   1.406       .  A
C995       H1000   1.083       .  S
C996        C997   1.404       .  A
C996       H1001   1.083       .  S
C997        C998   1.406       .  A
C998       H1002   1.084       .  S
C999       C1004   1.410       .  A
C999       C1008   1.404       .  A
C1004      C1005   1.405       .  A
C1004      H1009   1.083       .  S
C1005      C1006   1.402       .  A
C1005      H1010   1.083       .  S
C1006      C1007   1.404       .  A
C1007      C1008   1.397       .  A
C1007      H1011   1.084       .  S
C1008      H1012   1.083       .  S
C1013      C1014   1.404       .  A
C1013      C1018   1.394       .  A
C1013      H1023   1.083       .  S
C1014      C1019   1.482       .  S
C1014      C1015   1.406       .  A
C1015      C1016   1.405       .  A
C1015      H1020   1.083       .  S
C1016      C1017   1.406       .  A
C1016      H1021   1.083       .  S
C1017      C1018   1.402       .  A
C1018      H1022   1.084       .  S
C1019      C1024   1.403       .  A
C1019      C1028   1.405   1_545  A
C1024      C1025   1.393       .  A
C1024      H1029   1.084       .  S
C1025      C1026   1.407   1_545  A
C1025      H1030   1.083       .  S
C1026      C1027   1.408       .  A
C1027      C1028   1.405       .  A
C1027      H1031   1.083       .  S
C1028      H1032   1.083       .  S
