geometry optimzed in LAMMPS
_audit_creation_date              2020-11-30 
_audit_creation_method            'lammps2cif' 
_symmetry_space_group_name_H-M    'P1' 
_symmetry_Int_Tables_number       1 
_symmetry_cell_setting            triclinic 
loop_ 
_symmetry_equiv_pos_as_xyz 
  x,y,z 
_cell_length_a                    33.60946373257935 
_cell_length_b                    33.58787176808562 
_cell_length_c                    47.9068308156597 
_cell_angle_alpha                 90.03412687925174 
_cell_angle_beta                  90.08656198605073 
_cell_angle_gamma                 90.13756885400696 
loop_ 
_atom_site_label 
_atom_site_type_symbol 
_atom_site_fract_x 
_atom_site_fract_y 
_atom_site_fract_z 
_atom_site_charge 
C1          C  0.99810633  0.63403331  0.02585005     0.02820
C2          C  0.99707470  0.65475844  0.00054348    -0.13330
C3          C  0.99435427  0.63418461  0.97518437     0.00320
C4          C  0.99409014  0.59230905  0.97535061    -0.11860
C5          C  0.99807626  0.57027879  0.00040849     0.02810
C6          C  0.99972256  0.59227163  0.02562603    -0.11280
H7          H  0.99821865  0.68699738  0.00065803     0.08400
H8          H  0.99014268  0.57771731  0.95551290     0.05930
H9          H  0.00173182  0.57791616  0.04561610     0.05780
C10         C  0.58757926  0.05145455  0.97387738     0.02820
C11         C  0.60811103  0.04836288  0.99920534    -0.13330
C12         C  0.58731063  0.04595084  0.02443812     0.00320
C13         C  0.54552513  0.04393864  0.02399930    -0.11860
C14         C  0.52370823  0.04829725  0.99886096     0.02810
C15         C  0.54582832  0.05252814  0.97391707    -0.11280
H16         H  0.64035237  0.04826564  0.99928452     0.08400
H17         H  0.53084008  0.03892366  0.04367582     0.05930
H18         H  0.53149567  0.05710168  0.95405732     0.05780
C19         C  0.91392662  0.54488142  0.52467259     0.02820
C20         C  0.89345107  0.54491121  0.49918543    -0.13330
C21         C  0.91432706  0.54270742  0.47393357     0.00320
C22         C  0.95605662  0.54112331  0.47434548    -0.11860
C23         C  0.97787668  0.54297146  0.49961789     0.02810
C24         C  0.95568495  0.54504973  0.52469257    -0.11280
H25         H  0.86125775  0.54656950  0.49902579     0.08400
H26         H  0.97054796  0.53809535  0.45445333     0.05930
H27         H  0.96991894  0.54667925  0.54478171     0.05780
C28         C  0.50605696  0.96044241  0.47482571     0.02820
C29         C  0.50162295  0.93977646  0.50002207    -0.13330
C30         C  0.50071653  0.96032218  0.52545542     0.00320
C31         C  0.50025019  0.00213304  0.52542308    -0.11860
C32         C  0.50411177  0.02408688  0.50038175     0.02810
C33         C  0.50861843  0.00220926  0.47533729    -0.11280
H34         H  0.49906291  0.90762188  0.49994641     0.08400
H35         H  0.49708553  0.01676437  0.54530913     0.05930
H36         H  0.51442218  0.01697369  0.45578222     0.05780
C37         C  0.49912200  0.13244081  0.47448381     0.02820
C38         C  0.49835408  0.09064225  0.47507640    -0.13330
C39         C  0.50338457  0.06917397  0.50024042     0.00320
C40         C  0.50690586  0.09154823  0.52517096    -0.11860
C41         C  0.50463914  0.13328910  0.52503152     0.02810
C42         C  0.50248436  0.15355524  0.49957920    -0.11280
H43         H  0.49324654  0.07559569  0.45550558     0.08400
H44         H  0.51135627  0.07741647  0.54511889     0.05930
H45         H  0.50272063  0.18581120  0.49937099     0.05780
C46         C  0.08634214  0.54618308  0.52572671     0.02820
C47         C  0.04481071  0.54201179  0.52516060    -0.13330
C48         C  0.02305785  0.54354219  0.49983491     0.00320
C49         C  0.04535209  0.54631521  0.47480932    -0.11860
C50         C  0.08707524  0.54839912  0.47509209     0.02810
C51         C  0.10728102  0.54880853  0.50058924    -0.11280
H52         H  0.03047000  0.53744226  0.54496030     0.08400
H53         H  0.03131628  0.54684866  0.45462710     0.05930
H54         H  0.13943259  0.55147136  0.50083738     0.05780
C55         C  0.70911359  0.01106431  0.83283713     0.02820
C56         C  0.68992881  0.01250875  0.85888534    -0.13330
C57         C  0.67458348  0.04844864  0.86930481     0.00320
C58         C  0.68150757  0.08378451  0.85437987    -0.11860
C59         C  0.70230398  0.08303689  0.82905220     0.02810
C60         C  0.71510010  0.04664790  0.81801608    -0.11280
H61         H  0.68598190  0.98532477  0.87073133     0.08400
H62         H  0.67057681  0.11191331  0.86233668     0.05930
H63         H  0.72903915  0.04612685  0.79764879     0.05780
O64         O  0.72714964  0.26482131  0.78749850    -0.74740
O65         O  0.73953601  0.36344327  0.74866365    -0.74770
O66         O  0.68426067  0.30499118  0.74921267    -0.74820
O67         O  0.78400089  0.32362500  0.78662443    -0.74870
O68         O  0.81580298  0.29150976  0.75254186    -0.74810
O69         O  0.71661014  0.27306182  0.71528005    -0.74780
O70         O  0.77212344  0.33239336  0.71467000    -0.74760
O71         O  0.75961241  0.23302189  0.75354352    -0.74820
Ni72       Ni  0.73270212  0.31530010  0.76928405     1.25410
Ni73       Ni  0.76719971  0.28140904  0.73277978     1.25360
C74         C  0.74026926  0.23265459  0.77658010     0.87440
C75         C  0.75842450  0.36452523  0.72555926     0.87370
C76         C  0.68422980  0.28563664  0.72615018     0.87400
C77         C  0.81633675  0.31109982  0.77543746     0.87570
O78         O  0.77353732  0.76606355  0.71232829    -0.74740
O79         O  0.75793437  0.86243293  0.75359312    -0.74770
O80         O  0.81452957  0.80530653  0.75244046    -0.74820
O81         O  0.71674629  0.82359120  0.71354415    -0.74870
O82         O  0.68388291  0.78950738  0.74619631    -0.74810
O83         O  0.78174790  0.77061974  0.78481405    -0.74780
O84         O  0.72531586  0.82828908  0.78627903    -0.74760
O85         O  0.74007720  0.73202335  0.74470247    -0.74820
Ni86       Ni  0.76685700  0.81551468  0.73178533     1.25410
Ni87       Ni  0.73160803  0.77890656  0.76668107     1.25360
C88         C  0.75976063  0.73316298  0.72185399     0.87440
C89         C  0.73848450  0.86131439  0.77654932     0.87370
C90         C  0.81421056  0.78494090  0.77502125     0.87400
C91         C  0.68420824  0.80980324  0.72358353     0.87570
C92         C  0.96256532  0.74875365  0.83047274     0.02820
C93         C  0.96205121  0.72993643  0.85661500    -0.13330
C94         C  0.99762372  0.72166325  0.87078890     0.00320
C95         C  0.03372777  0.73509894  0.85956840    -0.11860
C96         C  0.03480981  0.75412142  0.83349601     0.02810
C97         C  0.99913210  0.76040315  0.81890666    -0.11280
H98         H  0.93392682  0.72090852  0.86566734     0.08400
H99         H  0.06120381  0.72986268  0.87083872     0.05930
H100        H  0.99985550  0.77361731  0.79828393     0.05780
O101        O  0.26350762  0.73123680  0.74843853    -0.74740
O102        O  0.26989474  0.82986590  0.78820538    -0.74770
O103        O  0.21732015  0.76846973  0.78708134    -0.74820
O104        O  0.31524547  0.79258045  0.74929064    -0.74870
O105        O  0.28076564  0.81982779  0.71445637    -0.74810
O106        O  0.18382709  0.80106850  0.75405938    -0.74780
O107        O  0.23859805  0.86046650  0.75316536    -0.74760
O108        O  0.22678429  0.76016234  0.71559391    -0.74820
Ni109      Ni  0.26766165  0.77945890  0.76949769     1.25410
Ni110      Ni  0.23123320  0.81143166  0.73311541     1.25360
C111        C  0.24352740  0.72907715  0.72576788     0.87440
C112        C  0.25607767  0.86150655  0.77695748     0.87370
C113        C  0.18443444  0.78132732  0.77690803     0.87400
C114        C  0.31401162  0.81002016  0.72549283     0.87570
C115        C  0.96520685  0.34299056  0.83135588     0.02820
C116        C  0.00138097  0.33450075  0.81821757    -0.13330
C117        C  0.03767407  0.34363006  0.83137640     0.00320
C118        C  0.03710256  0.36342512  0.85726525    -0.11860
C119        C  0.00095784  0.37225272  0.87061695     0.02810
C120        C  0.96506657  0.36173970  0.85745128    -0.11280
H121        H  0.00115490  0.32112602  0.79763397     0.08400
H122        H  0.06488852  0.37206531  0.86703137     0.05930
H123        H  0.93689724  0.36825231  0.86742854     0.05780
O124        O  0.24173509  0.23290088  0.75318888    -0.74740
O125        O  0.22762884  0.32966216  0.71265398    -0.74770
O126        O  0.28354091  0.27146820  0.71337522    -0.74820
O127        O  0.18625663  0.29128052  0.75270172    -0.74870
O128        O  0.22008494  0.32433187  0.78544255    -0.74810
O129        O  0.31730070  0.30471622  0.74610594    -0.74780
O130        O  0.26168449  0.36280655  0.74536165    -0.74760
O131        O  0.27535283  0.26558878  0.78624699    -0.74820
Ni132      Ni  0.23361401  0.28015191  0.73181748     1.25410
Ni133      Ni  0.26984324  0.31549677  0.76699106     1.25360
C134        C  0.26082418  0.23319353  0.77632171     0.87440
C135        C  0.24204878  0.36205550  0.72243950     0.87370
C136        C  0.31642755  0.28475595  0.72332360     0.87400
C137        C  0.18709809  0.31170106  0.77531301     0.87570
C138        C  0.29905849  0.08302316  0.82931573     0.02820
C139        C  0.28479849  0.04693021  0.81820161    -0.13330
C140        C  0.29358768  0.01052738  0.83115949     0.00320
C141        C  0.31363400  0.01048891  0.85680835    -0.11860
C142        C  0.32718549  0.04628081  0.86875025     0.02810
C143        C  0.32106911  0.08218670  0.85428656    -0.11280
H144        H  0.26720400  0.04691915  0.79924468     0.08400
H145        H  0.31922341  0.98242425  0.86723022     0.05930
H146        H  0.33330782  0.10961846  0.86257512     0.05780
C147        C  0.20918296  0.50931251  0.66637709     0.02820
C148        C  0.18340800  0.50956369  0.64350888    -0.13330
C149        C  0.17386705  0.54547222  0.63024593     0.00320
C150        C  0.18625765  0.58153663  0.64251735    -0.11860
C151        C  0.21282616  0.58182965  0.66536087     0.02810
C152        C  0.22550998  0.54495909  0.67616000    -0.11280
H153        H  0.17134969  0.48170498  0.63576716     0.08400
H154        H  0.17494141  0.60915181  0.63419806     0.05930
H155        H  0.24671650  0.54365395  0.69316603     0.05780
C156        C  0.46449070  0.25408169  0.66624926     0.02820
C157        C  0.46613835  0.23465137  0.64034434    -0.13330
C158        C  0.50260604  0.22134470  0.62941953     0.00320
C159        C  0.53748645  0.22731780  0.64514909    -0.11860
C160        C  0.53633688  0.24781892  0.67069882     0.02810
C161        C  0.49975422  0.26107715  0.68113119    -0.11280
H162        H  0.43882098  0.22978408  0.62877584     0.08400
H163        H  0.56566611  0.21624547  0.63749586     0.05930
H164        H  0.49862435  0.27586116  0.70123367     0.05780
C165        C  0.46248893  0.84104529  0.66822217     0.02820
C166        C  0.46291325  0.85872844  0.64165600    -0.13330
C167        C  0.49828689  0.87392566  0.63035584     0.00320
C168        C  0.53423209  0.86742642  0.64463199    -0.11860
C169        C  0.53458939  0.84870627  0.67079957     0.02810
C170        C  0.49846976  0.83673118  0.68282056    -0.11280
H171        H  0.43538841  0.86163790  0.63004958     0.08400
H172        H  0.56201954  0.87728106  0.63551551     0.05930
H173        H  0.49846573  0.82436771  0.70369756     0.05780
C174        C  0.79205095  0.51277249  0.66676258     0.02820
C175        C  0.81861569  0.51301469  0.64405649    -0.13330
C176        C  0.82689552  0.54829729  0.62933486     0.00320
C177        C  0.81041477  0.58416923  0.63875845    -0.11860
C178        C  0.78744906  0.58535486  0.66314044     0.02810
C179        C  0.77743687  0.54952825  0.67650709    -0.11280
H180        H  0.83290509  0.48566258  0.63765517     0.08400
H181        H  0.81617404  0.61153666  0.62750492     0.05930
H182        H  0.75882066  0.55059067  0.69487760     0.05780
C183        C  0.41489710  0.04357125  0.97328465     0.02820
C184        C  0.45669337  0.04474833  0.97345204    -0.13330
C185        C  0.47857181  0.04816897  0.99865944     0.00320
C186        C  0.45651789  0.05156352  0.02370791    -0.11860
C187        C  0.41476875  0.04949433  0.02380143     0.02810
C188        C  0.39429990  0.04504198  0.99859225    -0.11280
H189        H  0.47130226  0.04288354  0.95352869     0.08400
H190        H  0.47099257  0.05646694  0.04351572     0.05930
H191        H  0.36212034  0.04280448  0.99865742     0.05780
C192        C  0.99540076  0.46094682  0.02512621     0.02820
C193        C  0.99748392  0.50271469  0.02530654    -0.13330
C194        C  0.99906576  0.52504434  0.00023552     0.00320
C195        C  0.00138889  0.50326698  0.97494010    -0.11860
C196        C  0.99801969  0.46155846  0.97445405     0.02810
C197        C  0.99496368  0.44075711  0.99962485    -0.11280
H198        H  0.99792153  0.51677990  0.04543911     0.08400
H199        H  0.00608426  0.51786235  0.95520449     0.05930
H200        H  0.99221980  0.40859316  0.99937952     0.05780
C201        C  0.03573602  0.75409242  0.16841195     0.02820
C202        C  0.99967241  0.75995458  0.18260853    -0.13330
C203        C  0.96352497  0.74849657  0.17034411     0.00320
C204        C  0.96373871  0.72770208  0.14498833    -0.11860
C205        C  0.99962525  0.72043834  0.13087428     0.02810
C206        C  0.03514933  0.73564063  0.14209084    -0.11280
H207        H  0.99958452  0.77356361  0.20311035     0.08400
H208        H  0.93584528  0.71687915  0.13647966     0.05930
H209        H  0.06271396  0.73210164  0.13068036     0.05780
O210        O  0.24277441  0.86187835  0.24538193    -0.74740
O211        O  0.22571754  0.76656930  0.28763071    -0.74770
O212        O  0.28273899  0.82378483  0.28611090    -0.74820
O213        O  0.18534096  0.80495783  0.24687530    -0.74870
O214        O  0.21829113  0.77034946  0.21467754    -0.74810
O215        O  0.31559868  0.78785994  0.25444771    -0.74780
O216        O  0.25814293  0.73151372  0.25549819    -0.74760
O217        O  0.27604912  0.82693284  0.21356583    -0.74820
Ni218      Ni  0.23293334  0.81551499  0.26763557     1.25410
Ni219      Ni  0.26815953  0.77794319  0.23337028     1.25360
C220        C  0.26311779  0.86027961  0.22280489     0.87440
C221        C  0.23881502  0.73323873  0.27849687     0.87370
C222        C  0.31508480  0.80893931  0.27671321     0.87400
C223        C  0.18566171  0.78412638  0.22447887     0.87570
O224        O  0.72473520  0.82825501  0.21294979    -0.74740
O225        O  0.73933932  0.73046633  0.25221154    -0.74770
O226        O  0.68329456  0.78831058  0.25200335    -0.74820
O227        O  0.78162719  0.77049057  0.21333238    -0.74870
O228        O  0.81437511  0.80156447  0.24757626    -0.74810
O229        O  0.71628637  0.82197319  0.28490744    -0.74780
O230        O  0.77108844  0.76279898  0.28631854    -0.74760
O231        O  0.75925066  0.86057010  0.24579949    -0.74820
Ni232      Ni  0.73111866  0.77822344  0.23138874     1.25410
Ni233      Ni  0.76642722  0.81289644  0.26734248     1.25360
C234        C  0.73905870  0.86049483  0.22308073     0.87440
C235        C  0.75801358  0.73037778  0.27550417     0.87370
C236        C  0.68366158  0.80896541  0.27450416     0.87400
C237        C  0.81426354  0.78210264  0.22464100     0.87570
C238        C  0.70030353  0.00931898  0.17008772     0.02820
C239        C  0.68074632  0.00888686  0.14419141    -0.13330
C240        C  0.67405873  0.04449941  0.12953900     0.00320
C241        C  0.68577875  0.08073352  0.14183803    -0.11780
C242        C  0.70282870  0.08166734  0.16863236     0.02810
C243        C  0.71109873  0.04567677  0.18225864    -0.11280
H244        H  0.67097409  0.98075476  0.13546406     0.08400
H245        H  0.68106111  0.10841129  0.13072413     0.05930
H246        H  0.72495228  0.04590765  0.20270786     0.05780
O247        O  0.78238938  0.31908110  0.21218898    -0.74740
O248        O  0.68542699  0.30608468  0.25336659    -0.74770
O249        O  0.74372449  0.36189449  0.25141462    -0.74820
O250        O  0.72432478  0.26307361  0.21398834    -0.74870
O251        O  0.75904771  0.23104636  0.24666514    -0.74810
O252        O  0.77497986  0.32943664  0.28560799    -0.74780
O253        O  0.71826761  0.27180948  0.28595866    -0.74760
O254        O  0.81568890  0.28872236  0.24643475    -0.74820
Ni255      Ni  0.73273317  0.31365688  0.23154154     1.25410
Ni256      Ni  0.76815473  0.27908885  0.26736465     1.25360
C257        C  0.81503012  0.30659239  0.22284142     0.87440
C258        C  0.68592741  0.28641715  0.27627104     0.87370
C259        C  0.76282866  0.36194458  0.27456123     0.87400
C260        C  0.73896479  0.23084812  0.22391879     0.87570
C261        C  0.29659474  0.00956549  0.16640479     0.02820
C262        C  0.31287386  0.01049285  0.13941345    -0.13330
C263        C  0.32646281  0.04636751  0.12775519     0.00320
C264        C  0.31929618  0.08215898  0.14201493    -0.11860
C265        C  0.30311388  0.08201634  0.16903386     0.02810
C266        C  0.29330599  0.04534652  0.18140757    -0.11280
H267        H  0.31599913  0.98306745  0.12771642     0.08400
H268        H  0.32701924  0.11013275  0.13221135     0.05930
H269        H  0.28285316  0.04471262  0.20277586     0.05780
C270        C  0.03633473  0.34647120  0.16935094     0.02820
C271        C  0.03576565  0.36532810  0.14315628    -0.13330
C272        C  0.99958258  0.37274106  0.12933240     0.00320
C273        C  0.96378227  0.36168310  0.14232017    -0.11860
C274        C  0.96382505  0.34385270  0.16874359     0.02810
C275        C  0.00019919  0.33548061  0.18184784    -0.11280
H276        H  0.06352677  0.37429313  0.13358125     0.08400
H277        H  0.93564905  0.36760766  0.13206413     0.05930
H278        H  0.00032686  0.32100384  0.20206118     0.05780
O279        O  0.27553450  0.26341676  0.21354285    -0.74740
O280        O  0.25766041  0.36171150  0.25234451    -0.74770
O281        O  0.31563484  0.30496758  0.25276071    -0.74820
O282        O  0.21792653  0.32040895  0.21309113    -0.74870
O283        O  0.18518689  0.28717635  0.24621068    -0.74810
O284        O  0.28315168  0.27248600  0.28635253    -0.74780
O285        O  0.22514100  0.32874900  0.28571702    -0.74760
O286        O  0.24305622  0.23073562  0.24693305    -0.74820
Ni287      Ni  0.26786858  0.31377862  0.23176123     1.25410
Ni288      Ni  0.23296749  0.27861063  0.26748927     1.25360
C289        C  0.26256526  0.23073299  0.22400346     0.87440
C290        C  0.23799205  0.36139728  0.27524178     0.87370
C291        C  0.31566993  0.28555789  0.27577051     0.87400
C292        C  0.18541548  0.30682728  0.22326802     0.87570
C293        C  0.53758595  0.25266336  0.33222789     0.02820
C294        C  0.53730407  0.23065754  0.35714429    -0.13330
C295        C  0.50119511  0.21782768  0.36897832     0.00320
C296        C  0.46529351  0.22835452  0.35583391    -0.11860
C297        C  0.46499258  0.25282064  0.33205076     0.02810
C298        C  0.50145752  0.26466882  0.32029273    -0.11280
H299        H  0.56529887  0.22321360  0.36704604     0.08400
H300        H  0.43742194  0.21719973  0.36407080     0.05930
H301        H  0.50180889  0.28236567  0.30138489     0.05780
C302        C  0.19702783  0.51030992  0.32896410     0.02820
C303        C  0.17709115  0.51041087  0.35474857    -0.13330
C304        C  0.17392861  0.54546515  0.37055076     0.00320
C305        C  0.18959699  0.58098694  0.35975577    -0.11860
C306        C  0.20733840  0.58221122  0.33324202     0.02810
C307        C  0.21139342  0.54652536  0.31814832    -0.11280
H308        H  0.16427973  0.48300740  0.36260776     0.08400
H309        H  0.18740202  0.60807882  0.37194866     0.05930
H310        H  0.22563414  0.54690387  0.29793645     0.05780
C311        C  0.79351367  0.51020671  0.33213638     0.02820
C312        C  0.81949506  0.51099322  0.35502942    -0.13330
C313        C  0.82908846  0.54699195  0.36841191     0.00320
C314        C  0.81434498  0.58283448  0.35737235    -0.11860
C315        C  0.78954841  0.58274212  0.33368132     0.02810
C316        C  0.77845748  0.54613167  0.32176794    -0.11280
H317        H  0.83225888  0.48340401  0.36253648     0.08400
H318        H  0.82256754  0.61077443  0.36702311     0.05930
H319        H  0.75861407  0.54560959  0.30391393     0.05780
C320        C  0.53601113  0.84324214  0.33101679     0.02820
C321        C  0.53618388  0.86439472  0.35628575    -0.13330
C322        C  0.50044539  0.87623140  0.36893035     0.00320
C323        C  0.46417735  0.86599938  0.35618931    -0.11860
C324        C  0.46371586  0.84573846  0.33057396     0.02810
C325        C  0.49959224  0.83448211  0.31807574    -0.11280
H326        H  0.56433402  0.87203275  0.36599817     0.08400
H327        H  0.43631304  0.87395323  0.36604944     0.05930
H328        H  0.49911727  0.81965298  0.29797883     0.05780
C329        C  0.35394126  0.27746358  0.28997938    -0.06440
C330        C  0.35702386  0.28351250  0.31887775    -0.17560
C331        C  0.39311437  0.27755655  0.33300515     0.10760
C332        C  0.42676179  0.26344006  0.31817602    -0.06360
C333        C  0.42344120  0.25741404  0.28925925    -0.17600
C334        C  0.38770683  0.26418080  0.27513196     0.10790
S335        S  0.39453198  0.29056223  0.36954044    -0.32560
S336        S  0.38638367  0.25254341  0.23846598    -0.32570
H337        H  0.34915346  0.23366263  0.24026879     0.28800
H338        H  0.43448963  0.30310736  0.36957805     0.28800
H339        H  0.33145375  0.29418735  0.33039938     0.19390
H340        H  0.44856365  0.24593903  0.27763124     0.19390
C341        C  0.22873875  0.39941508  0.28924329    -0.06440
C342        C  0.21286279  0.43048736  0.27316936    -0.17560
C343        C  0.20026066  0.46610246  0.28552205     0.10760
C344        C  0.20540969  0.47185813  0.31461264    -0.06360
C345        C  0.22127304  0.44053823  0.33060529    -0.17600
C346        C  0.23275745  0.40456295  0.31835073     0.10790
S347        S  0.17548888  0.50150388  0.26319846    -0.32560
S348        S  0.25377951  0.36708086  0.34088301    -0.32570
H349        H  0.28147185  0.35299027  0.32126055     0.28800
H350        H  0.15006382  0.51641293  0.28400010     0.28800
H351        H  0.20858025  0.42628202  0.25092369     0.19390
H352        H  0.22584865  0.44448217  0.35283561     0.19390
C353        C  0.07457234  0.33723862  0.18352908    -0.06440
C354        C  0.08129575  0.29801160  0.19254302    -0.17560
C355        C  0.11727354  0.28698976  0.20505521     0.10760
C356        C  0.14757246  0.31568762  0.20880906    -0.06360
C357        C  0.14096777  0.35486101  0.19975666    -0.17600
C358        C  0.10468883  0.36613822  0.18778676     0.10790
S359        S  0.12335756  0.23552248  0.21453329    -0.32560
S360        S  0.09801423  0.41827722  0.18014004    -0.32570
H361        H  0.05709992  0.41897187  0.18626061     0.28800
H362        H  0.16364782  0.23401190  0.20673556     0.28800
H363        H  0.05862400  0.27549058  0.18922643     0.19390
H364        H  0.16369271  0.37732727  0.20312814     0.19390
C365        C  0.27196695  0.19247103  0.20995954    -0.06440
C366        C  0.30848017  0.18904841  0.19591741    -0.17560
C367        C  0.32074559  0.15295041  0.18417018     0.10760
C368        C  0.29434787  0.11999987  0.18389653    -0.06360
C369        C  0.25739758  0.12378176  0.19734427    -0.17600
C370        C  0.24656236  0.15888510  0.21101449     0.10790
S371        S  0.37147294  0.15048163  0.17200678    -0.32560
S372        S  0.19918949  0.15920071  0.22837772    -0.32570
H373        H  0.21672856  0.15980479  0.25506920     0.28800
H374        H  0.37698850  0.11021190  0.17904808     0.28800
H375        H  0.32860630  0.21423273  0.19514863     0.19390
H376        H  0.23655352  0.09911844  0.19721229     0.19390
C377        C  0.85284010  0.31450227  0.20848164    -0.06440
C378        C  0.88109980  0.33781545  0.22257431    -0.17560
C379        C  0.91677322  0.34892968  0.20980728     0.10760
C380        C  0.92563524  0.33464710  0.18276704    -0.06360
C381        C  0.89736106  0.31116387  0.16868329    -0.17600
C382        C  0.86097044  0.30116274  0.18108903     0.10790
S383        S  0.94839941  0.38335817  0.22847120    -0.32560
S384        S  0.82710332  0.27087116  0.16079975    -0.32570
H385        H  0.80236475  0.25806115  0.18251322     0.28800
H386        H  0.96201764  0.40365204  0.20463478     0.28800
H387        H  0.87455862  0.34887990  0.24333236     0.19390
H388        H  0.90385295  0.30024577  0.14789095     0.19390
C389        C  0.77093061  0.40000324  0.28885404    -0.06440
C390        C  0.76537816  0.40211768  0.31783169    -0.17560
C391        C  0.77099084  0.43783359  0.33237800     0.10760
C392        C  0.78395011  0.47216020  0.31783743    -0.06360
C393        C  0.78951956  0.46991656  0.28882190    -0.17600
C394        C  0.78335802  0.43438006  0.27425038     0.10790
S395        S  0.75918784  0.43787690  0.36910842    -0.32560
S396        S  0.79396545  0.43448039  0.23735184    -0.32570
H397        H  0.81122348  0.39639408  0.23705623     0.28800
H398        H  0.74575203  0.47748457  0.36992635     0.28800
H399        H  0.75529867  0.37601498  0.32911181     0.19390
H400        H  0.79997727  0.49582118  0.27748869     0.19390
C401        C  0.64849401  0.27910368  0.29133761    -0.06440
C402        C  0.63614359  0.23955996  0.29464437    -0.17560
C403        C  0.59968303  0.23035714  0.30706394     0.10760
C404        C  0.57557482  0.26124598  0.31774418    -0.06360
C405        C  0.58793009  0.30094277  0.31441594    -0.17600
C406        C  0.62415383  0.31018199  0.30137760     0.10790
S407        S  0.58473135  0.17879785  0.30703892    -0.32560
S408        S  0.63818952  0.36191536  0.29886417    -0.32570
H409        H  0.67943909  0.35562080  0.30085230     0.28800
H410        H  0.54371659  0.18602037  0.30431674     0.28800
H411        H  0.65436931  0.21567387  0.28644463     0.19390
H412        H  0.56951803  0.32481174  0.32239271     0.19390
C413        C  0.71168561  0.12014500  0.18263784    -0.06440
C414        C  0.74973334  0.12627305  0.19406127    -0.17560
C415        C  0.75988470  0.16208106  0.20728386     0.10760
C416        C  0.73136151  0.19289956  0.20916749    -0.06360
C417        C  0.69345270  0.18686396  0.19756205    -0.17600
C418        C  0.68300131  0.15072888  0.18502009     0.10790
S419        S  0.80995883  0.16646755  0.22058983    -0.32560
S420        S  0.63181962  0.14483442  0.17430207    -0.32570
H421        H  0.62914958  0.10427663  0.18138889     0.28800
H422        H  0.81447084  0.20714407  0.21470829     0.28800
H423        H  0.77198552  0.10310552  0.19232429     0.19390
H424        H  0.67107826  0.20990657  0.19940917     0.19390
C425        C  0.73028076  0.89830028  0.20896027    -0.06440
C426        C  0.69025234  0.90940576  0.20622159    -0.17560
C427        C  0.67968681  0.94603551  0.19456770     0.10760
C428        C  0.70971538  0.97165751  0.18448023    -0.06360
C429        C  0.74979034  0.96056472  0.18721429    -0.17600
C430        C  0.76038381  0.92408926  0.19922234     0.10790
S431        S  0.62761060  0.95890473  0.19402028    -0.32560
S432        S  0.81250350  0.91153370  0.20052904    -0.32570
H433        H  0.80725468  0.87012229  0.19833718     0.28800
H434        H  0.63320768  0.00023976  0.19667409     0.28800
H435        H  0.66706835  0.88987167  0.21401109     0.19390
H436        H  0.77291565  0.98008098  0.17933533     0.19390
C437        C  0.64590226  0.81821215  0.28863189    -0.06440
C438        C  0.61781763  0.78770972  0.29229097    -0.17560
C439        C  0.58244950  0.79442265  0.30693619     0.10760
C440        C  0.57409180  0.83300308  0.31725292    -0.06360
C441        C  0.60223147  0.86344982  0.31345718    -0.17600
C442        C  0.63780317  0.85657986  0.29929090     0.10790
S443        S  0.55044679  0.75208874  0.31292386    -0.32560
S444        S  0.67058106  0.89859556  0.29441610    -0.32570
H445        H  0.68199013  0.88799005  0.26722247     0.28800
H446        H  0.53639024  0.76503136  0.33902870     0.28800
H447        H  0.62413010  0.75806057  0.28455191     0.19390
H448        H  0.59594371  0.89325069  0.32091332     0.19390
C449        C  0.76502609  0.69226290  0.28996476    -0.06440
C450        C  0.75983525  0.69051081  0.31901221    -0.17560
C451        C  0.76517950  0.65487781  0.33373723     0.10760
C452        C  0.77841895  0.62048987  0.31940764    -0.06360
C453        C  0.78325526  0.62241313  0.29028992    -0.17600
C454        C  0.77631432  0.65743112  0.27543978     0.10790
S455        S  0.75211833  0.65494259  0.37024155    -0.32560
S456        S  0.78372674  0.65537295  0.23813706    -0.32570
H457        H  0.79989330  0.69370434  0.23549005     0.28800
H458        H  0.73965034  0.61494885  0.37096152     0.28800
H459        H  0.75011121  0.71680120  0.33019572     0.19390
H460        H  0.79367913  0.59656481  0.27892507     0.19390
C461        C  0.27175365  0.89766715  0.20745298    -0.06440
C462        C  0.24405782  0.92886715  0.20887298    -0.17560
C463        C  0.25031568  0.96488900  0.19482932     0.10760
C464        C  0.28594033  0.97084079  0.17959798    -0.06360
C465        C  0.31340008  0.93945662  0.17795404    -0.17600
C466        C  0.30689276  0.90328869  0.19166286     0.10790
S467        S  0.21073624  0.00103375  0.19630067    -0.32560
S468        S  0.34597636  0.86677493  0.18949245    -0.32570
H469        H  0.34551558  0.85802512  0.21822207     0.28800
H470        H  0.21734597  0.01651613  0.16943050     0.28800
H471        H  0.21671662  0.92485063  0.22051623     0.19390
H472        H  0.34108568  0.94364227  0.16675923     0.19390
C473        C  0.35249754  0.81733604  0.29137944    -0.06440
C474        C  0.36395656  0.85720523  0.29453977    -0.17560
C475        C  0.40055655  0.86722940  0.30648498     0.10760
C476        C  0.42570453  0.83678134  0.31649764    -0.06360
C477        C  0.41420837  0.79683534  0.31335653    -0.17600
C478        C  0.37777813  0.78679895  0.30102010     0.10790
S479        S  0.41416693  0.91917150  0.30705164    -0.32560
S480        S  0.36463411  0.73477680  0.29900225    -0.32570
H481        H  0.32345383  0.74039266  0.30224901     0.28800
H482        H  0.45532932  0.91313611  0.30409421     0.28800
H483        H  0.34487736  0.88065811  0.28667322     0.19390
H484        H  0.43343851  0.77339082  0.32103288     0.19390
C485        C  0.21814974  0.62143841  0.32071854    -0.06440
C486        C  0.19068347  0.65276535  0.32319900    -0.17560
C487        C  0.19750141  0.68991172  0.31100986     0.10760
C488        C  0.23175381  0.69598151  0.29443739    -0.06360
C489        C  0.25950155  0.66487888  0.29211755    -0.17600
C490        C  0.25376129  0.62834025  0.30567268     0.10790
S491        S  0.16007965  0.72739907  0.31624440    -0.32560
S492        S  0.29399881  0.59299015  0.30397644    -0.32570
H493        H  0.28705264  0.57647373  0.33050235     0.28800
H494        H  0.18600057  0.75197476  0.33169765     0.28800
H495        H  0.16311935  0.64819443  0.33446952     0.19390
H496        H  0.28648247  0.66937668  0.28015132     0.19390
C497        C  0.14771313  0.77607788  0.20983182    -0.06440
C498        C  0.11833859  0.80576807  0.20963619    -0.17560
C499        C  0.08225772  0.80035078  0.19545576     0.10760
C500        C  0.07446629  0.76372611  0.18185315    -0.06360
C501        C  0.10394202  0.73412612  0.18207774    -0.17600
C502        C  0.14014199  0.73974371  0.19587662     0.10790
S503        S  0.04859190  0.84207628  0.19445561    -0.32560
S504        S  0.17419163  0.69834344  0.19619258    -0.32570
H505        H  0.18429487  0.70259882  0.22456064     0.28800
H506        H  0.03307085  0.83350989  0.16783473     0.28800
H507        H  0.12400050  0.83396460  0.21993488     0.19390
H508        H  0.09819933  0.70564517  0.17220787     0.19390
C509        C  0.92540053  0.75798689  0.18412988    -0.06440
C510        C  0.91740296  0.74136852  0.21036030    -0.17560
C511        C  0.88155668  0.74904293  0.22411670     0.10760
C512        C  0.85246415  0.77308036  0.21110337    -0.06360
C513        C  0.86018869  0.78922190  0.18469731    -0.17600
C514        C  0.89662860  0.78269522  0.17137013     0.10790
S515        S  0.87367644  0.72523293  0.25735393    -0.32560
S516        S  0.90512110  0.80777929  0.13861881    -0.32570
H517        H  0.94630982  0.81309559  0.14235433     0.28800
H518        H  0.86441526  0.76056517  0.27156383     0.28800
H519        H  0.93922185  0.72216282  0.22013925     0.19390
H520        H  0.83814024  0.80798794  0.17475779     0.19390
C521        C  0.99494700  0.43797148  0.05165527    -0.06440
C522        C  0.02200055  0.40644151  0.05485821    -0.17560
C523        C  0.02326517  0.38373231  0.07932348     0.10760
C524        C  0.99853403  0.39404006  0.10209407    -0.06360
C525        C  0.97158235  0.42568520  0.09886496    -0.17600
C526        C  0.96859411  0.44673838  0.07378854     0.10790
S527        S  0.05549167  0.34086506  0.07930538    -0.32560
S528        S  0.92909187  0.48281373  0.07106367    -0.32570
H529        H  0.92175604  0.47641039  0.04249399     0.28800
H530        H  0.03036518  0.31698187  0.09577191     0.28800
H531        H  0.04199084  0.39898108  0.03792168     0.19390
H532        H  0.95209933  0.43378118  0.11594140     0.19390
C533        C  0.39252033  0.05036695  0.05052370    -0.06440
C534        C  0.40270077  0.02273537  0.07125412    -0.17560
C535        C  0.38231804  0.02124212  0.09664744     0.10760
C536        C  0.34932455  0.04665771  0.10117353    -0.06360
C537        C  0.33912579  0.07428721  0.08033623    -0.17600
C538        C  0.36086509  0.07709842  0.05550510     0.10790
S539        S  0.40160958  0.98771977  0.12276206    -0.32560
S540        S  0.34780692  0.11657803  0.03169356    -0.32570
H541        H  0.38662615  0.12288919  0.02166955     0.28800
H542        H  0.39473488  0.01344620  0.14542147     0.28800
H543        H  0.42720399  0.00241110  0.06776687     0.19390
H544        H  0.31440061  0.09438990  0.08361062     0.19390
C545        C  0.34878705  0.04571683  0.89590279    -0.06440
C546        C  0.37902720  0.01740669  0.89992750    -0.17560
C547        C  0.39991524  0.01485784  0.92515453     0.10760
C548        C  0.39227436  0.04274338  0.94659675    -0.06360
C549        C  0.36221545  0.07116915  0.94255490    -0.17600
C550        C  0.33973873  0.07225003  0.91798088     0.10790
S551        S  0.43429600  0.97407230  0.92902202    -0.32560
S552        S  0.29869763  0.10676784  0.91701607    -0.32570
H553        H  0.27327201  0.08177082  0.90154248     0.28800
H554        H  0.42777731  0.96872917  0.95777346     0.28800
H555        H  0.38609819  0.99657117  0.88339697     0.19390
H556        H  0.35569420  0.09242000  0.95895260     0.19390
C557        C  0.28986478  0.12173620  0.81551612    -0.06440
C558        C  0.27657545  0.15383706  0.83197195    -0.17560
C559        C  0.26606436  0.19040357  0.81994049     0.10760
C560        C  0.26793168  0.19498198  0.79067911    -0.06360
C561        C  0.27952398  0.16255547  0.77426389    -0.17600
C562        C  0.29245152  0.12709359  0.78627012     0.10790
S563        S  0.24864691  0.22920177  0.84285019    -0.32560
S564        S  0.31584172  0.09209663  0.76313714    -0.32570
H565        H  0.34514047  0.08096195  0.78260828     0.28800
H566        H  0.22100355  0.24512464  0.82382992     0.28800
H567        H  0.27372866  0.15027009  0.85435786     0.19390
H568        H  0.28066708  0.16552422  0.75180242     0.19390
C569        C  0.23452267  0.39927976  0.70750928    -0.06440
C570        C  0.19833593  0.41861309  0.71238606    -0.17560
C571        C  0.18979383  0.45499816  0.69970037     0.10760
C572        C  0.21760265  0.47189264  0.68108475    -0.06360
C573        C  0.25376921  0.45249001  0.67607207    -0.17600
C574        C  0.26243174  0.41615610  0.68897571     0.10790
S575        S  0.14309184  0.47840620  0.70824597    -0.32560
S576        S  0.30925917  0.39281945  0.68083641    -0.32570
H577        H  0.29622316  0.35337175  0.68433467     0.28800
H578        H  0.15649732  0.51789374  0.70568718     0.28800
H579        H  0.17674734  0.40549852  0.72643542     0.19390
H580        H  0.27506518  0.46546811  0.66172784     0.19390
C581        C  0.42557397  0.26374001  0.67896279    -0.06440
C582        C  0.39923289  0.23221834  0.68425146    -0.17560
C583        C  0.36398235  0.23828197  0.69902447     0.10760
C584        C  0.35397759  0.27684349  0.70833479    -0.06360
C585        C  0.38014159  0.30853273  0.70288571    -0.17600
C586        C  0.41550864  0.30251583  0.68798992     0.10790
S587        S  0.33481716  0.19513456  0.70769023    -0.32560
S588        S  0.44588483  0.34553975  0.68053033    -0.32570
H589        H  0.46223266  0.33066512  0.65562388     0.28800
H590        H  0.32921986  0.20782611  0.73536547     0.28800
H591        H  0.40709985  0.20225407  0.67793893     0.19390
H592        H  0.37261081  0.33828806  0.70980833     0.19390
C593        C  0.99818841  0.43916236  0.94767025    -0.06440
C594        C  0.02393027  0.40649250  0.94492827    -0.17560
C595        C  0.02446019  0.38327877  0.92067312     0.10760
C596        C  0.00034517  0.39410851  0.89765009    -0.06360
C597        C  0.97482219  0.42699099  0.90034928    -0.17600
C598        C  0.97260514  0.44875455  0.92519926     0.10790
S599        S  0.05478192  0.33904197  0.92132097    -0.32560
S600        S  0.93495768  0.48683718  0.92724111    -0.32570
H601        H  0.92588912  0.48034957  0.95553380     0.28800
H602        H  0.02885307  0.31592955  0.90484752     0.28800
H603        H  0.04322712  0.39837857  0.96214695     0.19390
H604        H  0.95586054  0.43549055  0.88304501     0.19390
C605        C  0.07624848  0.33421857  0.81765276    -0.06440
C606        C  0.10556959  0.36405627  0.81633235    -0.17560
C607        C  0.14184190  0.35770682  0.80278287     0.10760
C608        C  0.14933130  0.32058823  0.78985243    -0.06360
C609        C  0.12010236  0.29073680  0.79112425    -0.17600
C610        C  0.08428913  0.29668892  0.80540076     0.10790
S611        S  0.17635526  0.39889780  0.80195496    -0.32560
S612        S  0.05149463  0.25431983  0.80857231    -0.32570
H613        H  0.03768994  0.26411051  0.83541491     0.28800
H614        H  0.18953187  0.39185573  0.77461289     0.28800
H615        H  0.09982945  0.39306068  0.82536639     0.19390
H616        H  0.12583486  0.26191233  0.78179028     0.19390
C617        C  0.26246119  0.90006704  0.79091712    -0.06440
C618        C  0.28651424  0.92795335  0.77732663    -0.17560
C619        C  0.29826778  0.96311891  0.79040647     0.10760
C620        C  0.28351587  0.97239405  0.81722425    -0.06360
C621        C  0.25920573  0.94450733  0.83096925    -0.17600
C622        C  0.24879096  0.90831138  0.81817883     0.10790
S623        S  0.33515644  0.99266470  0.77265948    -0.32560
S624        S  0.21783110  0.87417703  0.83749738    -0.32570
H625        H  0.19945382  0.85667699  0.81412030     0.28800
H626        H  0.35459425  0.00590248  0.79697960     0.28800
H627        H  0.29839380  0.92127972  0.75697145     0.19390
H628        H  0.24815114  0.95105708  0.85170314     0.19390
C629        C  0.35149256  0.81839289  0.71042417    -0.06440
C630        C  0.38192087  0.78982154  0.71135887    -0.17560
C631        C  0.41746467  0.79509026  0.69657698     0.10760
C632        C  0.42396335  0.83087416  0.68165495    -0.06360
C633        C  0.39337304  0.85920731  0.68058531    -0.17600
C634        C  0.35730964  0.85329802  0.69435970     0.10790
S635        S  0.45198118  0.75403619  0.69632543    -0.32560
S636        S  0.32094584  0.89237107  0.69090440    -0.32570
H637        H  0.30556592  0.88819287  0.71779934     0.28800
H638        H  0.46682192  0.76159361  0.66940125     0.28800
H639        H  0.37736430  0.76239629  0.72284572     0.19390
H640        H  0.39792032  0.88691389  0.66944915     0.19390
C641        C  0.23949496  0.69052223  0.71080594    -0.06440
C642        C  0.23594752  0.69139194  0.68155051    -0.17560
C643        C  0.23066433  0.65639064  0.66585571     0.10760
C644        C  0.22443387  0.61974070  0.67987536    -0.06360
C645        C  0.22909626  0.61902966  0.70908329    -0.17600
C646        C  0.23881987  0.65303316  0.72437363     0.10790
S647        S  0.23597393  0.65893703  0.62831401    -0.32560
S648        S  0.25214353  0.64441644  0.76041163    -0.32570
H649        H  0.23507353  0.67834788  0.77172043     0.28800
H650        H  0.24194965  0.70029314  0.62629567     0.28800
H651        H  0.23888240  0.71962280  0.67084945     0.19390
H652        H  0.22502740  0.59160149  0.72056836     0.19390
C653        C  0.14652590  0.77418622  0.79183960    -0.06440
C654        C  0.11887499  0.80536904  0.79381625    -0.17560
C655        C  0.08285003  0.80047260  0.80815361     0.10760
C656        C  0.07364223  0.76318869  0.82030350    -0.06360
C657        C  0.10141177  0.73226550  0.81844937    -0.17600
C658        C  0.13725198  0.73724623  0.80428406     0.10790
S659        S  0.05079866  0.84326125  0.81099139    -0.32560
S660        S  0.16776781  0.69401820  0.80039922    -0.32570
H661        H  0.17069298  0.69950554  0.77133509     0.28800
H662        H  0.03452861  0.83281545  0.83701169     0.28800
H663        H  0.12576527  0.83405781  0.78464657     0.19390
H664        H  0.09434118  0.70326279  0.82706818     0.19390
C665        C  0.85194907  0.77677644  0.78962280    -0.06440
C666        C  0.85901396  0.73787922  0.79898159    -0.17560
C667        C  0.89528138  0.72740709  0.81123514     0.10760
C668        C  0.92487512  0.75689453  0.81540023    -0.06360
C669        C  0.91774713  0.79582730  0.80597220    -0.17600
C670        C  0.88172570  0.80608807  0.79325540     0.10790
S671        S  0.90252109  0.67551799  0.81950640    -0.32560
S672        S  0.87495500  0.85743248  0.78339308    -0.32570
H673        H  0.83442618  0.85884453  0.79060943     0.28800
H674        H  0.94362143  0.67532877  0.81401400     0.28800
H675        H  0.83665030  0.71502893  0.79570200     0.19390
H676        H  0.94001611  0.81875905  0.80927021     0.19390
C677        C  0.76693231  0.69586034  0.70640405    -0.06440
C678        C  0.73512221  0.66938905  0.70207746    -0.17560
C679        C  0.74010257  0.63420065  0.68675484     0.10760
C680        C  0.77820758  0.62429060  0.67634845    -0.06360
C681        C  0.80990792  0.65097711  0.68068915    -0.17600
C682        C  0.80479057  0.68630350  0.69563086     0.10790
S683        S  0.69635204  0.60436985  0.68027410    -0.32560
S684        S  0.84837564  0.71650265  0.70181023    -0.32570
H685        H  0.83834925  0.72627897  0.72946964     0.28800
H686        H  0.70939798  0.58892402  0.65458500     0.28800
H687        H  0.70590354  0.67665319  0.71009090     0.19390
H688        H  0.83945105  0.64345143  0.67337000     0.19390
C689        C  0.64635079  0.81864601  0.70934106    -0.06440
C690        C  0.63941036  0.85785175  0.70055862    -0.17560
C691        C  0.60282823  0.86902627  0.68905841     0.10760
C692        C  0.57274626  0.83999273  0.68513378    -0.06360
C693        C  0.57984392  0.80071844  0.69388187    -0.17600
C694        C  0.61617770  0.78974725  0.70581469     0.10790
S695        S  0.59585827  0.92114356  0.68145225    -0.32560
S696        S  0.62280464  0.73808444  0.71484588    -0.32570
H697        H  0.66315612  0.73680348  0.70720224     0.28800
H698        H  0.55488878  0.92157509  0.68738374     0.28800
H699        H  0.66212114  0.88037795  0.70376144     0.19390
H700        H  0.55724870  0.77808174  0.69066795     0.19390
C701        C  0.85499280  0.31940961  0.78896246    -0.06440
C702        C  0.87437915  0.28861532  0.80327106    -0.17560
C703        C  0.91026966  0.29534339  0.81745322     0.10760
C704        C  0.92727427  0.33381410  0.81728056    -0.06360
C705        C  0.90856564  0.36430460  0.80235582    -0.17600
C706        C  0.87333126  0.35724671  0.78761096     0.10790
S707        S  0.93296841  0.25355541  0.83492810    -0.32560
S708        S  0.85528244  0.39690439  0.76588402    -0.32570
H709        H  0.83964299  0.37205009  0.74497005     0.28800
H710        H  0.95401411  0.27537624  0.85516825     0.28800
H711        H  0.86152292  0.25914092  0.80347043     0.19390
H712        H  0.92228135  0.39352442  0.80144044     0.19390
C713        C  0.76494317  0.40323441  0.71119428    -0.06440
C714        C  0.76850324  0.40311669  0.68197810    -0.17560
C715        C  0.77452489  0.43831954  0.66687352     0.10760
C716        C  0.78117836  0.47469567  0.68126390    -0.06360
C717        C  0.77720646  0.47474019  0.71050288    -0.17600
C718        C  0.76760216  0.44025055  0.72542922     0.10790
S719        S  0.76980469  0.43471671  0.62942410    -0.32560
S720        S  0.75775692  0.44723273  0.76220459    -0.32570
H721        H  0.77666548  0.41296993  0.77202352     0.28800
H722        H  0.75207807  0.47232921  0.62611565     0.28800
H723        H  0.76461487  0.37548349  0.67058803     0.19390
H724        H  0.78181827  0.50195449  0.72218405     0.19390
C725        C  0.64630444  0.27678257  0.71204267    -0.06440
C726        C  0.63641719  0.23681126  0.70703548    -0.17560
C727        C  0.60012536  0.22633998  0.69465360     0.10760
C728        C  0.57353280  0.25656148  0.68616548    -0.06360
C729        C  0.58336942  0.29654890  0.69141304    -0.17600
C730        C  0.61947810  0.30696232  0.70408316     0.10790
S731        S  0.58888960  0.17400158  0.69135098    -0.32560
S732        S  0.63038310  0.35921024  0.70837130    -0.32570
H733        H  0.67161164  0.35586706  0.70401264     0.28800
H734        H  0.54746293  0.17800879  0.69429239     0.28800
H735        H  0.65667312  0.21351183  0.71355326     0.19390
H736        H  0.56325917  0.31991723  0.68481107     0.19390
C737        C  0.73127385  0.19444124  0.79021985    -0.06440
C738        C  0.69211072  0.17998102  0.78896562    -0.17560
C739        C  0.68195554  0.14315640  0.80070508     0.10760
C740        C  0.71149417  0.12053260  0.81436692    -0.06360
C741        C  0.75068195  0.13490191  0.81543931    -0.17600
C742        C  0.76071897  0.17175123  0.80378665     0.10790
S743        S  0.63110186  0.12652495  0.79728391    -0.32560
S744        S  0.81098458  0.18918567  0.80793791    -0.32570
H745        H  0.79984555  0.22902124  0.81236606     0.28800
H746        H  0.63934353  0.08551837  0.79763462     0.28800
H747        H  0.66943475  0.19722797  0.77836318     0.19390
H748        H  0.77333548  0.11781134  0.82618120     0.19390
C749        C  0.73102567  0.89885485  0.79180830    -0.06440
C750        C  0.76086345  0.92820686  0.79219515    -0.17560
C751        C  0.75560865  0.96421044  0.80648879     0.10760
C752        C  0.71899902  0.97195617  0.82002800    -0.06360
C753        C  0.68938228  0.94234440  0.81980192    -0.17600
C754        C  0.69482956  0.90623871  0.80585171     0.10790
S755        S  0.79742173  0.99796879  0.80754326    -0.32560
S756        S  0.65326940  0.87219593  0.80522491    -0.32570
H757        H  0.65732335  0.86268963  0.77675832     0.28800
H758        H  0.78852772  0.01395497  0.83394011     0.28800
H759        H  0.78893837  0.92268402  0.78180307     0.19390
H760        H  0.66091264  0.94801892  0.82959881     0.19390
C761        C  0.10821070  0.54686165  0.55268345    -0.06440
C762        C  0.14041263  0.52086805  0.55617096    -0.17560
C763        C  0.16279106  0.52060537  0.58075906     0.10760
C764        C  0.15152455  0.54527628  0.60342255    -0.06360
C765        C  0.11902929  0.57106860  0.60001757    -0.17600
C766        C  0.09808101  0.57295526  0.57476693     0.10790
S767        S  0.20673144  0.48982893  0.58093348    -0.32560
S768        S  0.06031428  0.61078564  0.57167543    -0.32570
H769        H  0.06723513  0.61875663  0.54326853     0.28800
H770        H  0.23028373  0.51692617  0.59613459     0.28800
H771        H  0.14882129  0.50113506  0.53927861     0.19390
H772        H  0.11031931  0.59052280  0.61697818     0.19390
C773        C  0.15280405  0.54589174  0.39783035    -0.06440
C774        C  0.12397990  0.57546353  0.40244549    -0.17560
C775        C  0.10325767  0.57794518  0.42767630     0.10760
C776        C  0.10988696  0.54909610  0.44860132    -0.06360
C777        C  0.13867517  0.51955391  0.44410002    -0.17600
C778        C  0.16071389  0.51810664  0.41934622     0.10790
S779        S  0.06999860  0.61952425  0.43218528    -0.32560
S780        S  0.19953549  0.48122896  0.41728208    -0.32570
H781        H  0.22590036  0.50495537  0.40168268     0.28800
H782        H  0.07620236  0.62354148  0.46109255     0.28800
H783        H  0.11779037  0.59720211  0.38631291     0.19390
H784        H  0.14433464  0.49759818  0.46018988     0.19390
C785        C  0.50357487  0.15585606  0.55164547    -0.06440
C786        C  0.53218427  0.18553521  0.55649502    -0.17560
C787        C  0.53198715  0.20815775  0.58107335     0.10760
C788        C  0.50363063  0.19977963  0.60219291    -0.06360
C789        C  0.47503926  0.16994884  0.59718632    -0.17600
C790        C  0.47398253  0.14888976  0.57200331     0.10790
S791        S  0.56726192  0.24860402  0.58317349    -0.32560
S792        S  0.43298182  0.11492042  0.56665694    -0.32570
H793        H  0.42914678  0.12212880  0.53785298     0.28800
H794        H  0.54178010  0.27449820  0.59769445     0.28800
H795        H  0.55442815  0.19168872  0.54070762     0.19390
H796        H  0.45286356  0.16326077  0.61290524     0.19390
C797        C  0.49778940  0.15375482  0.44730503    -0.06440
C798        C  0.52459267  0.14227914  0.42635543    -0.17560
C799        C  0.52535581  0.16130190  0.40039951     0.10760
C800        C  0.50036645  0.19447224  0.39546539    -0.06360
C801        C  0.47344470  0.20583141  0.41647457    -0.17600
C802        C  0.47104186  0.18522410  0.44181569     0.10790
S803        S  0.55695661  0.13981296  0.37411474    -0.32560
S804        S  0.43189814  0.19936685  0.46553024    -0.32570
H805        H  0.42547689  0.16087991  0.47620557     0.28800
H806        H  0.52989285  0.14639301  0.35218647     0.28800
H807        H  0.54477199  0.11771577  0.43008425     0.19390
H808        H  0.45362825  0.23075222  0.41300979     0.19390
C809        C  0.50046929  0.93813260  0.55227216    -0.06440
C810        C  0.47118018  0.94683712  0.57219845    -0.17560
C811        C  0.47051458  0.92757843  0.59810895     0.10760
C812        C  0.49798653  0.89656196  0.60367131    -0.06360
C813        C  0.52701092  0.88777065  0.58358826    -0.17600
C814        C  0.52961738  0.90925364  0.55873044     0.10790
S815        S  0.43579698  0.94622724  0.62362649    -0.32560
S816        S  0.57289808  0.90056816  0.53752745    -0.32570
H817        H  0.57686340  0.94024426  0.52855165     0.28800
H818        H  0.46130979  0.94094863  0.64663191     0.28800
H819        H  0.44933565  0.96971128  0.56787581     0.19390
H820        H  0.54878155  0.86473799  0.58764268     0.19390
C821        C  0.50606364  0.93888710  0.44761984    -0.06440
C822        C  0.48144038  0.95301804  0.42605735    -0.17560
C823        C  0.48001913  0.93422708  0.40000578     0.10760
C824        C  0.50154181  0.89860777  0.39568765    -0.06360
C825        C  0.52589457  0.88431787  0.41727236    -0.17600
C826        C  0.52952000  0.90469641  0.44258204     0.10790
S827        S  0.45235693  0.95885042  0.37281511    -0.32560
S828        S  0.56699193  0.88710554  0.46636130    -0.32570
H829        H  0.57822082  0.92538237  0.47538337     0.28800
H830        H  0.47910827  0.94885743  0.35138497     0.28800
H831        H  0.46369379  0.97950981  0.42931380     0.19390
H832        H  0.54322332  0.85752282  0.41411128     0.19390
C833        C  0.85120883  0.54716607  0.60337529    -0.06440
C834        C  0.84241743  0.51781732  0.58338722    -0.17560
C835        C  0.86319037  0.51557583  0.55819178     0.10760
C836        C  0.89197312  0.54485919  0.55161988    -0.06360
C837        C  0.90104828  0.57411152  0.57162979    -0.17600
C838        C  0.88198512  0.57489386  0.59761445     0.10790
S839        S  0.85306912  0.47316772  0.53628013    -0.32560
S840        S  0.90010960  0.61052996  0.62283254    -0.32570
H841        H  0.89280404  0.58646684  0.64630137     0.28800
H842        H  0.89241875  0.46890872  0.52680514     0.28800
H843        H  0.81937282  0.49600178  0.58754499     0.19390
H844        H  0.92382282  0.59610622  0.56719226     0.19390
C845        C  0.89286322  0.54279923  0.44676016    -0.06440
C846        C  0.90390290  0.57079820  0.42636200    -0.17560
C847        C  0.88500079  0.57207529  0.40027832     0.10760
C848        C  0.85254271  0.54623288  0.39480016    -0.06360
C849        C  0.84159864  0.51835761  0.41528798    -0.17600
C850        C  0.86210434  0.51545592  0.44056460     0.10790
S851        S  0.90544036  0.60565680  0.37463471    -0.32560
S852        S  0.84907122  0.47453115  0.46303540    -0.32570
H853        H  0.88805830  0.46794504  0.47266286     0.28800
H854        H  0.89709807  0.58113741  0.35153554     0.28800
H855        H  0.92804700  0.59139539  0.43059745     0.19390
H856        H  0.81714355  0.49799641  0.41139311     0.19390
C857        C  0.60952300  0.05228541  0.94700155    -0.06440
C858        C  0.59981975  0.02374282  0.92667502    -0.17560
C859        C  0.61951193  0.02250254  0.90098979     0.10760
C860        C  0.65129473  0.04926051  0.89571499    -0.06360
C861        C  0.66088325  0.07790614  0.91608125    -0.17600
C862        C  0.63984927  0.08030734  0.94123937     0.10790
S863        S  0.60098909  0.98739826  0.87553546    -0.32560
S864        S  0.65205291  0.12081954  0.96447821    -0.32570
H865        H  0.61328978  0.12579601  0.97492245     0.28800
H866        H  0.60779109  0.01205959  0.85229685     0.28800
H867        H  0.57619879  0.00248729  0.93071548     0.19390
H868        H  0.68473856  0.09895424  0.91224947     0.19390
C869        C  0.60942234  0.04604211  0.05136222    -0.06440
C870        C  0.64055273  0.01878580  0.05530159    -0.17560
C871        C  0.66296570  0.01834601  0.07999619     0.10760
C872        C  0.65296275  0.04446557  0.10213684    -0.06360
C873        C  0.62169891  0.07161472  0.09813257    -0.17600
C874        C  0.60077703  0.07349065  0.07291222     0.10790
S875        S  0.70517395  0.98532056  0.08105979    -0.32560
S876        S  0.56492639  0.11303288  0.06915777    -0.32570
H877        H  0.57267420  0.12004752  0.04072878     0.28800
H878        H  0.72937756  0.01086923  0.09704410     0.28800
H879        H  0.64800441  0.99812620  0.03873973     0.19390
H880        H  0.61380200  0.09209392  0.11470066     0.19390
C881        C  0.99684196  0.69840435  0.89709399    -0.06440
C882        C  0.97060663  0.71009032  0.91827644    -0.17560
C883        C  0.96770201  0.68874439  0.94321520     0.10760
C884        C  0.99347852  0.65622204  0.94821203    -0.06360
C885        C  0.01971031  0.64450121  0.92693034    -0.17600
C886        C  0.02074433  0.66427377  0.90124844     0.10790
S887        S  0.92844040  0.70298136  0.96662045    -0.32560
S888        S  0.05153234  0.64299338  0.87428885    -0.32570
H889        H  0.02576660  0.65254632  0.85212340     0.28800
H890        H  0.92011117  0.66389347  0.97540498     0.28800
H891        H  0.95143308  0.73559477  0.91509634     0.19390
H892        H  0.03921281  0.61926566  0.93015721     0.19390
C893        C  0.99769724  0.65593468  0.05281162    -0.06440
C894        C  0.02718085  0.64764340  0.07273689    -0.17560
C895        C  0.02763549  0.66677543  0.09869920     0.10760
C896        C  0.99971181  0.69734549  0.10434017    -0.06360
C897        C  0.97035652  0.70562006  0.08429831    -0.17600
C898        C  0.96802525  0.68420015  0.05936028     0.10790
S899        S  0.06278748  0.64852142  0.12412806    -0.32560
S900        S  0.92460566  0.69224821  0.03808820    -0.32570
H901        H  0.92151459  0.65261267  0.02882265     0.28800
H902        H  0.03745853  0.65365426  0.14719820     0.28800
H903        H  0.04944352  0.62521551  0.06833911     0.19390
H904        H  0.94824812  0.72831246  0.08837543     0.19390
loop_ 
_geom_bond_atom_site_label_1 
_geom_bond_atom_site_label_2 
_geom_bond_distance 
_geom_bond_site_symmetry_2 
_ccdc_geom_bond_type 
C1            C2   1.399       .  A
C1            C6   1.404       .  A
C1          C893   1.486       .  S
C2            C3   1.400   1_554  A
C2            H7   1.083       .  S
C3            C4   1.407       .  A
C3          C884   1.490       .  S
C4            C5   1.417   1_556  A
C4            H8   1.077       .  S
C5            C6   1.417       .  A
C5          C194   1.520       .  S
C6            H9   1.075   1_655  S
C10          C11   1.399       .  A
C10          C15   1.404       .  A
C10         C857   1.485       .  S
C11          C12   1.400   1_556  A
C11          H16   1.084       .  S
C12          C13   1.406       .  A
C12         C869   1.488       .  S
C13          C14   1.417   1_554  A
C13          H17   1.078       .  S
C14          C15   1.415       .  A
C14         C185   1.517       .  S
C15          H18   1.077       .  S
C19          C20   1.401       .  A
C19          C24   1.403       .  A
C19         C836   1.488       .  S
C20          C21   1.401       .  A
C20          H25   1.084       .  S
C21          C22   1.404       .  A
C21         C845   1.487       .  S
C22          C23   1.416       .  A
C22          H26   1.076       .  S
C23          C24   1.417       .  A
C23          C48   1.519   1_655  S
C24          H27   1.075       .  S
C28          C29   1.401       .  A
C28          C33   1.405   1_565  A
C28         C821   1.491       .  S
C29          C30   1.400       .  A
C29          H34   1.083       .  S
C30          C31   1.404   1_565  A
C30         C809   1.486       .  S
C31          C32   1.414       .  A
C31          H35   1.077       .  S
C32          C33   1.415       .  A
C32          C39   1.515       .  S
C33          H36   1.078       .  S
C37          C38   1.404       .  A
C37          C42   1.400       .  A
C37         C797   1.487       .  S
C38          C39   1.415       .  A
C38          H43   1.078       .  S
C39          C40   1.415       .  A
C40          C41   1.404       .  A
C40          H44   1.078       .  S
C41          C42   1.399       .  A
C41         C785   1.483       .  S
C42          H45   1.083       .  S
C46          C47   1.403       .  A
C46          C51   1.398       .  A
C46         C761   1.485       .  S
C47          C48   1.417       .  A
C47          H52   1.076       .  S
C48          C49   1.418       .  A
C49          C50   1.404       .  A
C49          H53   1.075       .  S
C50          C51   1.397       .  A
C50         C776   1.484       .  S
C51          H54   1.084       .  S
C55          C56   1.406       .  A
C55          C60   1.405       .  A
C55         C752   1.488   1_545  S
C56          C57   1.405       .  A
C56          H61   1.083   1_545  S
C57          C58   1.405       .  A
C57         C860   1.489       .  S
C58          C59   1.401       .  A
C58          H62   1.084       .  S
C59          C60   1.400       .  A
C59         C740   1.475       .  S
C60          H63   1.083       .  S
O64         Ni72   1.916       .  S
O64          C74   1.280       .  A
O65         Ni72   1.909       .  S
O65          C75   1.277       .  A
O66         Ni72   1.920       .  S
O66          C76   1.282       .  A
O67         Ni72   1.932       .  S
O67          C77   1.284       .  A
O68         Ni73   1.916       .  S
O68          C77   1.279       .  A
O69         Ni73   1.915       .  S
O69          C76   1.280       .  A
O70         Ni73   1.927       .  S
O70          C75   1.285       .  A
O71         Ni73   1.923       .  S
O71          C74   1.282       .  A
Ni72        Ni73   2.389       .  S
C74         C737   1.472       .  S
C75         C713   1.487       .  S
C76         C725   1.471       .  S
C77         C701   1.477       .  S
O78         Ni86   1.918       .  S
O78          C88   1.282       .  A
O79         Ni86   1.915       .  S
O79          C89   1.281       .  A
O80         Ni86   1.914       .  S
O80          C90   1.280       .  A
O81         Ni86   1.916       .  S
O81          C91   1.281       .  A
O82         Ni87   1.913       .  S
O82          C91   1.280       .  A
O83         Ni87   1.916       .  S
O83          C90   1.281       .  A
O84         Ni87   1.918       .  S
O84          C89   1.282       .  A
O85         Ni87   1.916       .  S
O85          C88   1.280       .  A
Ni86        Ni87   2.390       .  S
C88         C677   1.475       .  S
C89         C749   1.479       .  S
C90         C665   1.474       .  S
C91         C689   1.474       .  S
C92          C93   1.403       .  A
C92          C97   1.404       .  A
C92         C668   1.483       .  S
C93          C94   1.403       .  A
C93          H98   1.083       .  S
C94          C95   1.402   1_655  A
C94         C881   1.483       .  S
C95          C96   1.404       .  A
C95          H99   1.084       .  S
C96          C97   1.403   1_455  A
C96         C656   1.482       .  S
C97         H100   1.084       .  S
O101       Ni109   1.912       .  S
O101        C111   1.278       .  A
O102       Ni109   1.916       .  S
O102        C112   1.280       .  A
O103       Ni109   1.926       .  S
O103        C113   1.283       .  A
O104       Ni109   1.921       .  S
O104        C114   1.283       .  A
O105       Ni110   1.911       .  S
O105        C114   1.279       .  A
O106       Ni110   1.915       .  S
O106        C113   1.280       .  A
O107       Ni110   1.921       .  S
O107        C112   1.282       .  A
O108       Ni110   1.921       .  S
O108        C111   1.283       .  A
Ni109      Ni110   2.386       .  S
C111        C641   1.486       .  S
C112        C617   1.472       .  S
C113        C653   1.481       .  S
C114        C629   1.479       .  S
C115        C116   1.400   1_655  A
C115        C120   1.399       .  A
C115        C704   1.473       .  S
C116        C117   1.405       .  A
C116        H121   1.083       .  S
C117        C118   1.407       .  A
C117        C605   1.489       .  S
C118        C119   1.406       .  A
C118        H122   1.083       .  S
C119        C120   1.405   1_455  A
C119        C596   1.488       .  S
C120        H123   1.084       .  S
O124       Ni132   1.909       .  S
O124        C134   1.280       .  A
O125       Ni132   1.911       .  S
O125        C135   1.279       .  A
O126       Ni132   1.920       .  S
O126        C136   1.282       .  A
O127       Ni132   1.919       .  S
O127        C137   1.282       .  A
O128       Ni133   1.916       .  S
O128        C137   1.281       .  A
O129       Ni133   1.919       .  S
O129        C136   1.281       .  A
O130       Ni133   1.918       .  S
O130        C135   1.281       .  A
O131       Ni133   1.923       .  S
O131        C134   1.282       .  A
Ni132      Ni133   2.391       .  S
C134        C560   1.476       .  S
C135        C569   1.463       .  S
C136        C584   1.478       .  S
C137        C608   1.480       .  S
C138        C139   1.407       .  A
C138        C143   1.406       .  A
C138        C557   1.492       .  S
C139        C140   1.403       .  A
C139        H144   1.083       .  S
C140        C141   1.400       .  A
C140        C620   1.482   1_545  S
C141        C142   1.406       .  A
C141        H145   1.084   1_545  S
C142        C143   1.407       .  A
C142        C545   1.489       .  S
C143        H146   1.083       .  S
C147        C148   1.396       .  A
C147        C152   1.396       .  A
C147        C572   1.469       .  S
C148        C149   1.401       .  A
C148        H153   1.084       .  S
C149        C150   1.408       .  A
C149        C764   1.487       .  S
C150        C151   1.411       .  A
C150        H154   1.080       .  S
C151        C152   1.409       .  A
C151        C644   1.501       .  S
C152        H155   1.083       .  S
C156        C157   1.403       .  A
C156        C161   1.401       .  A
C156        C581   1.480       .  S
C157        C158   1.407       .  A
C157        H162   1.084       .  S
C158        C159   1.407       .  A
C158        C788   1.492       .  S
C159        C160   1.405       .  A
C159        H163   1.083       .  S
C160        C161   1.401       .  A
C160        C728   1.481       .  S
C161        H164   1.084       .  S
C165        C166   1.405       .  A
C165        C170   1.404       .  A
C165        C632   1.486       .  S
C166        C167   1.402       .  A
C166        H171   1.083       .  S
C167        C168   1.405       .  A
C167        C812   1.488       .  S
C168        C169   1.403       .  A
C168        H172   1.083       .  S
C169        C170   1.403       .  A
C169        C692   1.484       .  S
C170        H173   1.083       .  S
C174        C175   1.408       .  A
C174        C179   1.409       .  A
C174        C716   1.500       .  S
C175        C176   1.407       .  A
C175        H180   1.082       .  S
C176        C177   1.402       .  A
C176        C833   1.490       .  S
C177        C178   1.402       .  A
C177        H181   1.083       .  S
C178        C179   1.404       .  A
C178        C680   1.486       .  S
C179        H182   1.081       .  S
C183        C184   1.405       .  A
C183        C188   1.398       .  A
C183        C548   1.487       .  S
C184        C185   1.417       .  A
C184        H189   1.076       .  S
C185        C186   1.416   1_556  A
C186        C187   1.405       .  A
C186        H190   1.078       .  S
C187        C188   1.397   1_554  A
C187        C533   1.484       .  S
C188        H191   1.084       .  S
C192        C193   1.404       .  A
C192        C197   1.397   1_554  A
C192        C521   1.487       .  S
C193        C194   1.417       .  A
C193        H198   1.074       .  S
C194        C195   1.417   1_654  A
C195        C196   1.405   1_455  A
C195        H199   1.077       .  S
C196        C197   1.398       .  A
C196        C593   1.487       .  S
C197        H200   1.084       .  S
C201        C202   1.405   1_455  A
C201        C206   1.405       .  A
C201        C500   1.486       .  S
C202        C203   1.402       .  A
C202        H207   1.083       .  S
C203        C204   1.401       .  A
C203        C509   1.478       .  S
C204        C205   1.405       .  A
C204        H208   1.084       .  S
C205        C206   1.403   1_655  A
C205        C896   1.489       .  S
C206        H209   1.083       .  S
O210       Ni218   1.916       .  S
O210        C220   1.282       .  A
O211       Ni218   1.918       .  S
O211        C221   1.281       .  A
O212       Ni218   1.912       .  S
O212        C222   1.279       .  A
O213       Ni218   1.915       .  S
O213        C223   1.281       .  A
O214       Ni219   1.916       .  S
O214        C223   1.281       .  A
O215       Ni219   1.914       .  S
O215        C222   1.280       .  A
O216       Ni219   1.916       .  S
O216        C221   1.281       .  A
O217       Ni219   1.918       .  S
O217        C220   1.281       .  A
Ni218      Ni219   2.387       .  S
C220        C461   1.484       .  S
C221        C488   1.485       .  S
C222        C473   1.466       .  S
C223        C497   1.479       .  S
O224       Ni232   1.911       .  S
O224        C234   1.279       .  A
O225       Ni232   1.910       .  S
O225        C235   1.279       .  A
O226       Ni232   1.919       .  S
O226        C236   1.282       .  A
O227       Ni232   1.925       .  S
O227        C237   1.282       .  A
O228       Ni233   1.909       .  S
O228        C237   1.278       .  A
O229       Ni233   1.910       .  S
O229        C236   1.280       .  A
O230       Ni233   1.920       .  S
O230        C235   1.282       .  A
O231       Ni233   1.921       .  S
O231        C234   1.282       .  A
Ni232      Ni233   2.391       .  S
C234        C425   1.469       .  S
C235        C449   1.475       .  S
C236        C437   1.473       .  S
C237        C512   1.471       .  S
C238        C239   1.403       .  A
C238        C243   1.400       .  A
C238        C428   1.476   1_545  S
C239        C240   1.406       .  A
C239        H244   1.083   1_545  S
C240        C241   1.407       .  A
C240        C872   1.491       .  S
C241        C242   1.405       .  A
C241        H245   1.083       .  S
C242        C243   1.402       .  A
C242        C413   1.485       .  S
C243        H246   1.084       .  S
O247       Ni255   1.919       .  S
O247        C257   1.281       .  A
O248       Ni255   1.921       .  S
O248        C258   1.281       .  A
O249       Ni255   1.914       .  S
O249        C259   1.281       .  A
O250       Ni255   1.915       .  S
O250        C260   1.282       .  A
O251       Ni256   1.917       .  S
O251        C260   1.281       .  A
O252       Ni256   1.916       .  S
O252        C259   1.281       .  A
O253       Ni256   1.915       .  S
O253        C258   1.280       .  A
O254       Ni256   1.914       .  S
O254        C257   1.280       .  A
Ni255      Ni256   2.390       .  S
C257        C377   1.470       .  S
C258        C401   1.472       .  S
C259        C389   1.474       .  S
C260        C416   1.479       .  S
C261        C262   1.405       .  A
C261        C266   1.405       .  A
C261        C464   1.490   1_545  S
C262        C263   1.404       .  A
C262        H267   1.083   1_545  S
C263        C264   1.404       .  A
C263        C536   1.488       .  S
C264        C265   1.405       .  A
C264        H268   1.082       .  S
C265        C266   1.406       .  A
C265        C368   1.491       .  S
C266        H269   1.083       .  S
C270        C271   1.406       .  A
C270        C275   1.404       .  A
C270        C353   1.486       .  S
C271        C272   1.407   1_455  A
C271        H276   1.082       .  S
C272        C273   1.405       .  A
C272        C524   1.489       .  S
C273        C274   1.401       .  A
C273        H277   1.084       .  S
C274        C275   1.403   1_655  A
C274        C380   1.482       .  S
C275        H278   1.084       .  S
O279       Ni287   1.921       .  S
O279        C289   1.283       .  A
O280       Ni287   1.919       .  S
O280        C290   1.282       .  A
O281       Ni287   1.917       .  S
O281        C291   1.281       .  A
O282       Ni287   1.914       .  S
O282        C292   1.280       .  A
O283       Ni288   1.923       .  S
O283        C292   1.282       .  A
O284       Ni288   1.924       .  S
O284        C291   1.282       .  A
O285       Ni288   1.915       .  S
O285        C290   1.281       .  A
O286       Ni288   1.916       .  S
O286        C289   1.280       .  A
Ni287      Ni288   2.388       .  S
C289        C365   1.485       .  S
C290        C341   1.476       .  S
C291        C329   1.480       .  S
C292        C356   1.478       .  S
C293        C294   1.404       .  A
C293        C298   1.402       .  A
C293        C404   1.482       .  S
C294        C295   1.407       .  A
C294        H299   1.083       .  S
C295        C296   1.406       .  A
C295        C800   1.492       .  S
C296        C297   1.405       .  A
C296        H300   1.083       .  S
C297        C298   1.406       .  A
C297        C332   1.490       .  S
C298        H301   1.084       .  S
C302        C303   1.406       .  A
C302        C307   1.407       .  A
C302        C344   1.490       .  S
C303        C304   1.404       .  A
C303        H308   1.083       .  S
C304        C305   1.402       .  A
C304        C773   1.488       .  S
C305        C306   1.405       .  A
C305        H309   1.084       .  S
C306        C307   1.406       .  A
C306        C485   1.492       .  S
C307        H310   1.081       .  S
C311        C312   1.401       .  A
C311        C316   1.401       .  A
C311        C392   1.484       .  S
C312        C313   1.405       .  A
C312        H317   1.083       .  S
C313        C314   1.406       .  A
C313        C848   1.489       .  S
C314        C315   1.407       .  A
C314        H318   1.081       .  S
C315        C316   1.405       .  A
C315        C452   1.489       .  S
C316        H319   1.084       .  S
C320        C321   1.403       .  A
C320        C325   1.402       .  A
C320        C440   1.482       .  S
C321        C322   1.404       .  A
C321        H326   1.084       .  S
C322        C323   1.404       .  A
C322        C824   1.486       .  S
C323        C324   1.403       .  A
C323        H327   1.083       .  S
C324        C325   1.400       .  A
C324        C476   1.474       .  S
C325        H328   1.084       .  S
C329        C330   1.403       .  A
C329        C334   1.413       .  A
C330        C331   1.403       .  A
C330        H339   1.084       .  S
C331        C332   1.419       .  A
C331        S335   1.804       .  S
C332        C333   1.404       .  A
C333        C334   1.397       .  A
C333        H340   1.084       .  S
C334        S336   1.800       .  S
S335        H338   1.407       .  S
S336        H337   1.404       .  S
C341        C342   1.403       .  A
C341        C346   1.411       .  A
C342        C343   1.401       .  A
C342        H351   1.084       .  S
C343        C344   1.417       .  A
C343        S347   1.804       .  S
C344        C345   1.407       .  A
C345        C346   1.398       .  A
C345        H352   1.084       .  S
C346        S348   1.804       .  S
S347        H350   1.406       .  S
S348        H349   1.406       .  S
C353        C354   1.405       .  A
C353        C358   1.415       .  A
C354        C355   1.400       .  A
C354        H363   1.084       .  S
C355        C356   1.412       .  A
C355        S359   1.800       .  S
C356        C357   1.404       .  A
C357        C358   1.400       .  A
C357        H364   1.084       .  S
C358        S360   1.804       .  S
S359        H362   1.406       .  S
S360        H361   1.407       .  S
C365        C366   1.405       .  A
C365        C370   1.414       .  A
C366        C367   1.400       .  A
C366        H375   1.082       .  S
C367        C368   1.417       .  A
C367        S371   1.805       .  S
C368        C369   1.406       .  A
C369        C370   1.398       .  A
C369        H376   1.084       .  S
C370        S372   1.798       .  S
S371        H374   1.407       .  S
S372        H373   1.407       .  S
C377        C378   1.402       .  A
C377        C382   1.414       .  A
C378        C379   1.397       .  A
C378        H387   1.084       .  S
C379        C380   1.414       .  A
C379        S383   1.805       .  S
C380        C381   1.405       .  A
C381        C382   1.401       .  A
C381        H388   1.084       .  S
C382        S384   1.807       .  S
S383        H386   1.407       .  S
S384        H385   1.400       .  S
C389        C390   1.403       .  A
C389        C394   1.413       .  A
C390        C391   1.399       .  A
C390        H399   1.084       .  S
C391        C392   1.416       .  A
C391        S395   1.804       .  S
C392        C393   1.405       .  A
C393        C394   1.397       .  A
C393        H400   1.084       .  S
C394        S396   1.804       .  S
S395        H398   1.406       .  S
S396        H397   1.406       .  S
C401        C402   1.400       .  A
C401        C406   1.412       .  A
C402        C403   1.397       .  A
C402        H411   1.084       .  S
C403        C404   1.414       .  A
C403        S407   1.802       .  S
C404        C405   1.405       .  A
C405        C406   1.403       .  A
C405        H412   1.084       .  S
C406        S408   1.804       .  S
S407        H410   1.406       .  S
S408        H409   1.406       .  S
C413        C414   1.405       .  A
C413        C418   1.415       .  A
C414        C415   1.400       .  A
C414        H423   1.084       .  S
C415        C416   1.415       .  A
C415        S419   1.804       .  S
C416        C417   1.404       .  A
C417        C418   1.398       .  A
C417        H424   1.084       .  S
C418        S420   1.805       .  S
S419        H422   1.403       .  S
S420        H421   1.407       .  S
C425        C426   1.403       .  A
C425        C430   1.410       .  A
C426        C427   1.398       .  A
C426        H435   1.084       .  S
C427        C428   1.411       .  A
C427        S431   1.804       .  S
C428        C429   1.404       .  A
C429        C430   1.400       .  A
C429        H436   1.084       .  S
C430        S432   1.804       .  S
S431        H434   1.406   1_565  S
S432        H433   1.405       .  S
C437        C438   1.403       .  A
C437        C442   1.413       .  A
C438        C439   1.400       .  A
C438        H447   1.084       .  S
C439        C440   1.416       .  A
C439        S443   1.804       .  S
C440        C441   1.403       .  A
C441        C442   1.395       .  A
C441        H448   1.084       .  S
C442        S444   1.804       .  S
S443        H446   1.407       .  S
S444        H445   1.405       .  S
C449        C450   1.404       .  A
C449        C454   1.414       .  A
C450        C451   1.401       .  A
C450        H459   1.084       .  S
C451        C452   1.416       .  A
C451        S455   1.804       .  S
C452        C453   1.406       .  A
C453        C454   1.395       .  A
C453        H460   1.084       .  S
C454        S456   1.806       .  S
S455        H458   1.407       .  S
S456        H457   1.402       .  S
C461        C462   1.405       .  A
C461        C466   1.416       .  A
C462        C463   1.400       .  A
C462        H471   1.084       .  S
C463        C464   1.417       .  A
C463        S467   1.805   1_565  S
C464        C465   1.405       .  A
C465        C466   1.398       .  A
C465        H472   1.084       .  S
C466        S468   1.802       .  S
S467        H470   1.406       .  S
S468        H469   1.408       .  S
C473        C474   1.401       .  A
C473        C478   1.411       .  A
C474        C475   1.396       .  A
C474        H483   1.084       .  S
C475        C476   1.412       .  A
C475        S479   1.803       .  S
C476        C477   1.403       .  A
C477        C478   1.399       .  A
C477        H484   1.084       .  S
C478        S480   1.804       .  S
S479        H482   1.406       .  S
S480        H481   1.406       .  S
C485        C486   1.407       .  A
C485        C490   1.417       .  A
C486        C487   1.396       .  A
C486        H495   1.084       .  S
C487        C488   1.414       .  A
C487        S491   1.800       .  S
C488        C489   1.407       .  A
C489        C490   1.402       .  A
C489        H496   1.084       .  S
C490        S492   1.804       .  S
S491        H494   1.408       .  S
S492        H493   1.406       .  S
C497        C498   1.405       .  A
C497        C502   1.414       .  A
C498        C499   1.401       .  A
C498        H507   1.084       .  S
C499        C500   1.415       .  A
C499        S503   1.804       .  S
C500        C501   1.405       .  A
C501        C502   1.396       .  A
C501        H508   1.084       .  S
C502        S504   1.803       .  S
S503        H506   1.406       .  S
S504        H505   1.407       .  S
C509        C510   1.401       .  A
C509        C514   1.414       .  A
C510        C511   1.399       .  A
C510        H519   1.084       .  S
C511        C512   1.414       .  A
C511        S515   1.802       .  S
C512        C513   1.401       .  A
C513        C514   1.400       .  A
C513        H520   1.084       .  S
C514        S516   1.804       .  S
S515        H518   1.404       .  S
S516        H517   1.407       .  S
C521        C522   1.406   1_655  A
C521        C526   1.414       .  A
C522        C523   1.399       .  A
C522        H531   1.084       .  S
C523        C524   1.416   1_455  A
C523        S527   1.804       .  S
C524        C525   1.407       .  A
C525        C526   1.398       .  A
C525        H532   1.084       .  S
C526        S528   1.804       .  S
S527        H530   1.407       .  S
S528        H529   1.407       .  S
C533        C534   1.402       .  A
C533        C538   1.414       .  A
C534        C535   1.398       .  A
C534        H543   1.084       .  S
C535        C536   1.418       .  A
C535        S539   1.804   1_545  S
C536        C537   1.406       .  A
C537        C538   1.400       .  A
C537        H544   1.084       .  S
C538        S540   1.804       .  S
S539        H542   1.407   1_565  S
S540        H541   1.407       .  S
C545        C546   1.407       .  A
C545        C550   1.417       .  A
C546        C547   1.400       .  A
C546        H555   1.084   1_545  S
C547        C548   1.414       .  A
C547        S551   1.804   1_545  S
C548        C549   1.405       .  A
C549        C550   1.398       .  A
C549        H556   1.084       .  S
C550        S552   1.805       .  S
S551        H554   1.407       .  S
S552        H553   1.407       .  S
C557        C558   1.409       .  A
C557        C562   1.415       .  A
C558        C559   1.403       .  A
C558        H567   1.084       .  S
C559        C560   1.412       .  A
C559        S563   1.803       .  S
C560        C561   1.399       .  A
C561        C562   1.393       .  A
C561        H568   1.081       .  S
C562        S564   1.798       .  S
S563        H566   1.407       .  S
S564        H565   1.407       .  S
C569        C570   1.400       .  A
C569        C574   1.411       .  A
C570        C571   1.395       .  A
C570        H579   1.083       .  S
C571        C572   1.411       .  A
C571        S575   1.805       .  S
C572        C573   1.402       .  A
C573        C574   1.399       .  A
C573        H580   1.084       .  S
C574        S576   1.803       .  S
S575        H578   1.405       .  S
S576        H577   1.405       .  S
C581        C582   1.402       .  A
C581        C586   1.414       .  A
C582        C583   1.396       .  A
C582        H591   1.084       .  S
C583        C584   1.411       .  A
C583        S587   1.797       .  S
C584        C585   1.404       .  A
C585        C586   1.402       .  A
C585        H592   1.083       .  S
C586        S588   1.804       .  S
S587        H590   1.405       .  S
S588        H589   1.406       .  S
C593        C594   1.405   1_655  A
C593        C598   1.415       .  A
C594        C595   1.399       .  A
C594        H603   1.084       .  S
C595        C596   1.416       .  A
C595        S599   1.804       .  S
C596        C597   1.406   1_455  A
C597        C598   1.399       .  A
C597        H604   1.084       .  S
C598        S600   1.804       .  S
S599        H602   1.407       .  S
S600        H601   1.407       .  S
C605        C606   1.405       .  A
C605        C610   1.417       .  A
C606        C607   1.399       .  A
C606        H615   1.084       .  S
C607        C608   1.415       .  A
C607        S611   1.804       .  S
C608        C609   1.403       .  A
C609        C610   1.400       .  A
C609        H616   1.084       .  S
C610        S612   1.805       .  S
S611        H614   1.403       .  S
S612        H613   1.407       .  S
C617        C618   1.398       .  A
C617        C622   1.413       .  A
C618        C619   1.393       .  A
C618        H627   1.078       .  S
C619        C620   1.413       .  A
C619        S623   1.801       .  S
C620        C621   1.406       .  A
C621        C622   1.404       .  A
C621        H628   1.084       .  S
C622        S624   1.803       .  S
S623        H626   1.406   1_565  S
S624        H625   1.406       .  S
C629        C630   1.405       .  A
C629        C634   1.416       .  A
C630        C631   1.401       .  A
C630        H639   1.084       .  S
C631        C632   1.415       .  A
C631        S635   1.804       .  S
C632        C633   1.404       .  A
C633        C634   1.395       .  A
C633        H640   1.084       .  S
C634        S636   1.803       .  S
S635        H638   1.407       .  S
S636        H637   1.396       .  S
C641        C642   1.407       .  A
C641        C646   1.418       .  A
C642        C643   1.406       .  A
C642        H651   1.083       .  S
C643        C644   1.418       .  A
C643        S647   1.810       .  S
C644        C645   1.408       .  A
C645        C646   1.394       .  A
C645        H652   1.082       .  S
C646        S648   1.807       .  S
S647        H650   1.406       .  S
S648        H649   1.387       .  S
C653        C654   1.405       .  A
C653        C658   1.411       .  A
C654        C655   1.402       .  A
C654        H663   1.084       .  S
C655        C656   1.415       .  A
C655        S659   1.803       .  S
C656        C657   1.401       .  A
C657        C658   1.393       .  A
C657        H664   1.084       .  S
C658        S660   1.789       .  S
S659        H662   1.406       .  S
S660        H661   1.408       .  S
C665        C666   1.402       .  A
C665        C670   1.413       .  A
C666        C667   1.398       .  A
C666        H675   1.084       .  S
C667        C668   1.416       .  A
C667        S671   1.805       .  S
C668        C669   1.405       .  A
C669        C670   1.398       .  A
C669        H676   1.084       .  S
C670        S672   1.803       .  S
S671        H674   1.407       .  S
S672        H673   1.407       .  S
C677        C678   1.404       .  A
C677        C682   1.411       .  A
C678        C679   1.401       .  A
C678        H687   1.083       .  S
C679        C680   1.415       .  A
C679        S683   1.804       .  S
C680        C681   1.406       .  A
C681        C682   1.396       .  A
C681        H688   1.084       .  S
C682        S684   1.804       .  S
S683        H686   1.406       .  S
S684        H685   1.407       .  S
C689        C690   1.403       .  A
C689        C694   1.412       .  A
C690        C691   1.399       .  A
C690        H699   1.084       .  S
C691        C692   1.415       .  A
C691        S695   1.804       .  S
C692        C693   1.405       .  A
C693        C694   1.398       .  A
C693        H700   1.084       .  S
C694        S696   1.803       .  S
S695        H698   1.407       .  S
S696        H697   1.406       .  S
C701        C702   1.402       .  A
C701        C706   1.413       .  A
C702        C703   1.401       .  A
C702        H711   1.079       .  S
C703        C704   1.412       .  A
C703        S707   1.805       .  S
C704        C705   1.399       .  A
C705        C706   1.398       .  A
C705        H712   1.084       .  S
C706        S708   1.797       .  S
S707        H710   1.404       .  S
S708        H709   1.404       .  S
C713        C714   1.405       .  A
C713        C718   1.420       .  A
C714        C715   1.401       .  A
C714        H723   1.084       .  S
C715        C716   1.420       .  A
C715        S719   1.805       .  S
C716        C717   1.407       .  A
C717        C718   1.399       .  A
C717        H724   1.082       .  S
C718        S720   1.808       .  S
S719        H722   1.407       .  S
S720        H721   1.397       .  S
C725        C726   1.403       .  A
C725        C730   1.411       .  A
C726        C727   1.400       .  A
C726        H735   1.084       .  S
C727        C728   1.414       .  A
C727        S731   1.804       .  S
C728        C729   1.405       .  A
C729        C730   1.400       .  A
C729        H736   1.084       .  S
C730        S732   1.803       .  S
S731        H734   1.406       .  S
S732        H733   1.406       .  S
C737        C738   1.403       .  A
C737        C742   1.409       .  A
C738        C739   1.401       .  A
C738        H747   1.084       .  S
C739        C740   1.412       .  A
C739        S743   1.804       .  S
C740        C741   1.402       .  A
C741        C742   1.399       .  A
C741        H748   1.084       .  S
C742        S744   1.797       .  S
S743        H746   1.406       .  S
S744        H745   1.406       .  S
C749        C750   1.405       .  A
C749        C754   1.413       .  A
C750        C751   1.401       .  A
C750        H759   1.084       .  S
C751        C752   1.416       .  A
C751        S755   1.804       .  S
C752        C753   1.405       .  A
C753        C754   1.397       .  A
C753        H760   1.084       .  S
C754        S756   1.803       .  S
S755        H758   1.406   1_565  S
S756        H757   1.407       .  S
C761        C762   1.402       .  A
C761        C766   1.416       .  A
C762        C763   1.397       .  A
C762        H771   1.084       .  S
C763        C764   1.418       .  A
C763        S767   1.805       .  S
C764        C765   1.405       .  A
C765        C766   1.400       .  A
C765        H772   1.083       .  S
C766        S768   1.804       .  S
S767        H770   1.407       .  S
S768        H769   1.407       .  S
C773        C774   1.407       .  A
C773        C778   1.416       .  A
C774        C775   1.398       .  A
C774        H783   1.084       .  S
C775        C776   1.412       .  A
C775        S779   1.804       .  S
C776        C777   1.404       .  A
C777        C778   1.400       .  A
C777        H784   1.084       .  S
C778        S780   1.804       .  S
S779        H782   1.407       .  S
S780        H781   1.406       .  S
C785        C786   1.402       .  A
C785        C790   1.413       .  A
C786        C787   1.401       .  A
C786        H795   1.084       .  S
C787        C788   1.419       .  A
C787        S791   1.804       .  S
C788        C789   1.407       .  A
C789        C790   1.399       .  A
C789        H796   1.084       .  S
C790        S792   1.805       .  S
S791        H794   1.407       .  S
S792        H793   1.407       .  S
C797        C798   1.404       .  A
C797        C802   1.414       .  A
C798        C799   1.399       .  A
C798        H807   1.084       .  S
C799        C800   1.417       .  A
C799        S803   1.800       .  S
C800        C801   1.408       .  A
C801        C802   1.400       .  A
C801        H808   1.084       .  S
C802        S804   1.804       .  S
S803        H806   1.406       .  S
S804        H805   1.407       .  S
C809        C810   1.403       .  A
C809        C814   1.414       .  A
C810        C811   1.400       .  A
C810        H819   1.084       .  S
C811        C812   1.419       .  A
C811        S815   1.804       .  S
C812        C813   1.403       .  A
C813        C814   1.396       .  A
C813        H820   1.084       .  S
C814        S816   1.800       .  S
S815        H818   1.407       .  S
S816        H817   1.407       .  S
C821        C822   1.406       .  A
C821        C826   1.415       .  A
C822        C823   1.399       .  A
C822        H831   1.084       .  S
C823        C824   1.415       .  A
C823        S827   1.802       .  S
C824        C825   1.403       .  A
C825        C826   1.397       .  A
C825        H832   1.084       .  S
C826        S828   1.798       .  S
S827        H830   1.407       .  S
S828        H829   1.407       .  S
C833        C834   1.404       .  A
C833        C838   1.418       .  A
C834        C835   1.397       .  A
C834        H843   1.084       .  S
C835        C836   1.414       .  A
C835        S839   1.800       .  S
C836        C837   1.405       .  A
C837        C838   1.401       .  A
C837        H844   1.084       .  S
C838        S840   1.804       .  S
S839        H842   1.406       .  S
S840        H841   1.407       .  S
C845        C846   1.406       .  A
C845        C850   1.412       .  A
C846        C847   1.402       .  A
C846        H855   1.084       .  S
C847        C848   1.417       .  A
C847        S851   1.804       .  S
C848        C849   1.406       .  A
C849        C850   1.396       .  A
C849        H856   1.084       .  S
C850        S852   1.800       .  S
S851        H854   1.407       .  S
S852        H853   1.407       .  S
C857        C858   1.404       .  A
C857        C862   1.413       .  A
C858        C859   1.399       .  A
C858        H867   1.084       .  S
C859        C860   1.417       .  A
C859        S863   1.805   1_545  S
C860        C861   1.406       .  A
C861        C862   1.401       .  A
C861        H868   1.084       .  S
C862        S864   1.804       .  S
S863        H866   1.407   1_565  S
S864        H865   1.407       .  S
C869        C870   1.405       .  A
C869        C874   1.415       .  A
C870        C871   1.402       .  A
C870        H879   1.084   1_545  S
C871        C872   1.417       .  A
C871        S875   1.804   1_545  S
C872        C873   1.406       .  A
C873        C874   1.399       .  A
C873        H880   1.084       .  S
C874        S876   1.804       .  S
S875        H878   1.407   1_565  S
S876        H877   1.407       .  S
C881        C882   1.402       .  A
C881        C886   1.415   1_655  A
C882        C883   1.397       .  A
C882        H891   1.084       .  S
C883        C884   1.416       .  A
C883        S887   1.798       .  S
C884        C885   1.406   1_655  A
C885        C886   1.399       .  A
C885        H892   1.084       .  S
C886        S888   1.804       .  S
S887        H890   1.407       .  S
S888        H889   1.407       .  S
C893        C894   1.403   1_655  A
C893        C898   1.414       .  A
C894        C895   1.400       .  A
C894        H903   1.084       .  S
C895        C896   1.419   1_455  A
C895        S899   1.804       .  S
C896        C897   1.404       .  A
C897        C898   1.396       .  A
C897        H904   1.084       .  S
C898        S900   1.800       .  S
S899        H902   1.407       .  S
S900        H901   1.407       .  S
