geometry optimzed in LAMMPS
_audit_creation_date              2020-11-30 
_audit_creation_method            'lammps2cif' 
_symmetry_space_group_name_H-M    'P1' 
_symmetry_Int_Tables_number       1 
_symmetry_cell_setting            triclinic 
loop_ 
_symmetry_equiv_pos_as_xyz 
  x,y,z 
_cell_length_a                    44.85813394 
_cell_length_b                    44.828734695583385 
_cell_length_c                    44.85126152880968 
_cell_angle_alpha                 90.0723337524006 
_cell_angle_beta                  89.97108367691521 
_cell_angle_gamma                 90.09116443992647 
loop_ 
_atom_site_label 
_atom_site_type_symbol 
_atom_site_fract_x 
_atom_site_fract_y 
_atom_site_fract_z 
_atom_site_charge 
N1          N  0.97508798  0.26321958  0.26248730    -0.02300
C2          C  0.97754638  0.23324679  0.26591489     0.00300
C3          C  0.96875305  0.21867282  0.24025220    -0.22600
C4          C  0.96094929  0.24031726  0.22014134    -0.22800
C5          C  0.96545343  0.26746320  0.23406603     0.00200
H6          H  0.96860688  0.19483640  0.23641075     0.13900
H7          H  0.95487406  0.23670195  0.19706491     0.14000
O8          O  0.99993547  0.41099215  0.44957767    -0.79000
O9          O  0.00227921  0.58194482  0.45141982    -0.80500
O10         O  0.95189870  0.49766262  0.41307877    -0.77600
O11         O  0.04711338  0.49481840  0.41330874    -0.75900
O12         O  0.08478938  0.49531079  0.44759442    -0.77700
O13         O  0.91456785  0.49569311  0.44771523    -0.78700
O14         O  0.00281320  0.54641503  0.41501569    -0.80000
O15         O  0.99815585  0.44730588  0.41403283    -0.80300
Eu16       Eu  0.99968330  0.49659659  0.43866128     2.39200
O17         O  0.03044334  0.52641186  0.46883284    -0.87800
O18         O  0.96934808  0.46567680  0.46793506    -0.91400
C19         C  0.99863103  0.41966424  0.42225125     1.03300
C20         C  0.00356347  0.57392369  0.42378811     1.03100
C21         C  0.92416888  0.49709811  0.42045792     1.03100
C22         C  0.07485607  0.49452894  0.42040963     1.00900
H23         H  0.95664119  0.53876645  0.45612987     0.30700
O24         O  0.96859587  0.52600363  0.46861991    -1.00200
H25         H  0.04265361  0.45402636  0.45559067     0.30700
O26         O  0.03063332  0.46656508  0.46827166    -1.02700
O27         O  0.99614507  0.57933464  0.54834476    -0.80000
O28         O  0.00117486  0.40970116  0.54599415    -0.79500
O29         O  0.91396367  0.54470956  0.49873827    -0.77900
O30         O  0.08482971  0.54734033  0.49846616    -0.81300
O31         O  0.08606726  0.44643638  0.49813869    -0.79100
O32         O  0.91473828  0.44468342  0.49514023    -0.77800
O33         O  0.95164658  0.49090645  0.58311140    -0.79300
O34         O  0.04800509  0.49546164  0.58371801    -0.81200
O35         O  0.91444772  0.49126474  0.54823036    -0.78000
O36         O  0.08508602  0.49548816  0.54871610    -0.80600
O37         O  0.95099448  0.57977121  0.49846733    -0.76400
O38         O  0.95231894  0.41037521  0.49572803    -0.76400
O39         O  0.04850889  0.41199762  0.49717591    -0.76000
O40         O  0.04676932  0.58103821  0.50067218    -0.79500
O41         O  0.99593305  0.54328247  0.58416749    -0.79000
O42         O  0.00196495  0.44514054  0.58247933    -0.77300
Eu43       Eu  0.99925257  0.55526822  0.49934626     2.39800
Eu44       Eu  0.00022220  0.43603410  0.49792664     2.39600
Eu45       Eu  0.93793493  0.49486343  0.49811789     2.38400
Eu46       Eu  0.06190656  0.49643835  0.49839499     2.39900
Eu47       Eu  0.99982705  0.49467629  0.55853542     2.39800
O48         O  0.03105017  0.46567657  0.52814837    -0.91700
O49         O  0.96873018  0.52462436  0.52886905    -0.90600
C50         C  0.99493982  0.57083597  0.57578755     1.03500
C51         C  0.00188725  0.41767860  0.57363983     1.02200
C52         C  0.92335421  0.57206137  0.49850342     1.01600
C53         C  0.07460487  0.57442256  0.49951089     1.03600
C54         C  0.07625709  0.41920456  0.49756944     1.02500
C55         C  0.92455306  0.41752002  0.49466405     1.01400
C56         C  0.92399072  0.48984599  0.57548226     1.01400
C57         C  0.07569059  0.49538065  0.57607006     1.04000
H58         H  0.95722148  0.45155023  0.54025871     0.31400
O59         O  0.96910341  0.46482617  0.52819544    -1.03900
H60         H  0.04225812  0.53828917  0.54200192     0.33400
O61         O  0.03044697  0.52564024  0.52918674    -1.06400
N62         N  0.00153932  0.73110410  0.73225432    -0.02300
C63         C  0.99641849  0.72768129  0.76184857     0.00300
C64         C  0.99964096  0.75452308  0.77664099    -0.22600
C65         C  0.00694957  0.77529395  0.75551456    -0.22800
C66         C  0.00784827  0.76049508  0.72844230     0.00200
H67         H  0.99720714  0.75848153  0.80032805     0.13900
H68         H  0.01046145  0.79887687  0.75937634     0.14000
N69         N  0.02158419  0.25766634  0.73014432    -0.02300
C70         C  0.01949961  0.22777483  0.72609844     0.00300
C71         C  0.02559266  0.21283922  0.75231381    -0.22600
C72         C  0.03158558  0.23424259  0.77336873    -0.22800
C73         C  0.02882946  0.26147071  0.75927091     0.00200
H74         H  0.02519278  0.18895550  0.75581289     0.13900
H75         H  0.03579075  0.23044161  0.79681559     0.14000
N76         N  0.02981976  0.72812962  0.26123958    -0.02300
C77         C  0.02801526  0.72260652  0.23139222     0.00300
C78         C  0.03567292  0.74770465  0.21526734    -0.22600
C79         C  0.04203578  0.76962700  0.23547804    -0.22800
C80         C  0.03807982  0.75732801  0.26343819     0.00200
H81         H  0.03529961  0.75014339  0.19125891     0.13900
H82         H  0.04694515  0.79269460  0.23029909     0.14000
O83         O  0.00059960  0.04577935  0.40963806    -0.79000
O84         O  0.00571209  0.04220146  0.58090989    -0.80500
O85         O  0.95284391  0.07893527  0.49692876    -0.77600
O86         O  0.05114468  0.07780946  0.49469270    -0.75900
O87         O  0.08735240  0.04225341  0.49272002    -0.77700
O88         O  0.91706173  0.04273755  0.49652756    -0.78700
O89         O  0.00479767  0.07709029  0.54388943    -0.80000
O90         O  0.00128303  0.07985758  0.44755122    -0.80300
Eu91       Eu  0.00191152  0.05384022  0.49506777     2.39200
O92         O  0.03272188  0.02394394  0.52483180    -0.87800
O93         O  0.97160509  0.02446936  0.46420880    -0.91400
C94         C  0.00070870  0.07297202  0.41968976     1.03300
C95         C  0.00584909  0.06949043  0.57153045     1.03100
C96         C  0.92528040  0.07037533  0.49721036     1.03100
C97         C  0.07869714  0.06967758  0.49357084     1.00900
H98         H  0.96052483  0.03598069  0.53873395     0.30700
O99         O  0.97271961  0.02357263  0.52604039    -1.00200
H100        H  0.04395514  0.03738495  0.45122593     0.30700
O101        O  0.03153544  0.02463821  0.46335431    -1.02700
O102        O  0.00471994  0.94315733  0.57880947    -0.80000
O103        O  0.00493400  0.94511312  0.40815624    -0.79500
O104        O  0.91981702  0.99327910  0.54424796    -0.77900
O105        O  0.08755127  0.99556436  0.54027769    -0.81300
O106        O  0.08647143  0.99434983  0.44603132    -0.79100
O107        O  0.91758342  0.99415619  0.44681663    -0.77800
O108        O  0.95186068  0.90922456  0.49590158    -0.79300
O109        O  0.05078649  0.90913990  0.49039782    -0.81200
O110        O  0.91654663  0.94577060  0.49761597    -0.78000
O111        O  0.08643417  0.94548206  0.49112814    -0.80600
O112        O  0.95506570  0.99256072  0.58098055    -0.76400
O113        O  0.95160027  0.99438295  0.40887727    -0.76400
O114        O  0.05144321  0.99550662  0.40911829    -0.76000
O115        O  0.05384575  0.99449972  0.57829629    -0.79500
O116        O  0.00384815  0.90836022  0.54153697    -0.79000
O117        O  0.00376207  0.90940752  0.44450587    -0.77300
Eu118      Eu  0.00372141  0.99308140  0.55566816     2.39800
Eu119      Eu  0.00130984  0.99488789  0.43240961     2.39600
Eu120      Eu  0.94250783  0.99398772  0.49508855     2.38400
Eu121      Eu  0.06141882  0.99398958  0.49329457     2.39900
Eu122      Eu  0.00162615  0.93350311  0.49329887     2.39800
O123        O  0.03102641  0.96436443  0.46287443    -0.91700
O124        O  0.97284584  0.96359969  0.52484114    -0.90600
C125        C  0.00476248  0.91591581  0.56927805     1.03500
C126        C  0.00581812  0.91761785  0.41702858     1.02200
C127        C  0.92776968  0.99269934  0.57181539     1.01600
C128        C  0.08077205  0.99582066  0.56806062     1.03600
C129        C  0.07872654  0.99495961  0.41852637     1.02500
C130        C  0.92457440  0.99428240  0.41893990     1.01400
C131        C  0.92444242  0.91810622  0.49776895     1.01400
C132        C  0.07823765  0.91791035  0.49001095     1.04000
H133        H  0.95869503  0.95141388  0.45104535     0.31400
O134        O  0.97140136  0.96392143  0.46316250    -1.03900
H135        H  0.04585152  0.95027081  0.53566792     0.33400
O136        O  0.03280729  0.96279329  0.52401574    -1.06400
N137        N  0.23366227  0.22998578  0.51575244    -0.02300
C138        C  0.23001619  0.25981632  0.51217508     0.00300
C139        C  0.25654390  0.27462948  0.51716225    -0.22600
C140        C  0.27731682  0.25323102  0.52402868    -0.22800
C141        C  0.26284608  0.22600204  0.52275151     0.00200
H142        H  0.26040936  0.29841407  0.51564555     0.13900
H143        H  0.30088281  0.25696350  0.52764628     0.14000
N144        N  0.76589086  0.22938881  0.51567723    -0.02300
C145        C  0.77066934  0.25905097  0.51970595     0.00300
C146        C  0.74400074  0.27440781  0.52096969    -0.22600
C147        C  0.72187955  0.25380086  0.51734960    -0.22800
C148        C  0.73574213  0.22652802  0.51407394     0.00200
H149        H  0.74103494  0.29828563  0.52297802     0.13900
H150        H  0.69816416  0.25820902  0.51687160     0.14000
N151        N  0.76309704  0.76021071  0.49581821    -0.02300
C152        C  0.73316452  0.76339441  0.49935816     0.00300
C153        C  0.71890605  0.73612516  0.49716861    -0.22600
C154        C  0.74056374  0.71531326  0.49207787    -0.22800
C155        C  0.76731433  0.73052522  0.49139551     0.00200
H156        H  0.69523491  0.73185705  0.49917386     0.13900
H157        H  0.73732926  0.69146375  0.49002576     0.14000
N158        N  0.23712119  0.75981090  0.47982296    -0.02300
C159        C  0.23122782  0.73033914  0.48323628     0.00300
C160        C  0.25598620  0.71340579  0.47640766    -0.22600
C161        C  0.27814735  0.73302363  0.46881876    -0.22800
C162        C  0.26615977  0.76132195  0.47130770     0.00200
H163        H  0.25773698  0.68933720  0.47711572     0.13900
H164        H  0.30097120  0.72729001  0.46352952     0.14000
N165        N  0.73626061  0.00110168  0.26062100    -0.02300
C166        C  0.76551521  0.00718471  0.26534148     0.00300
C167        C  0.78051333  0.00987541  0.23855958    -0.22600
C168        C  0.75980772  0.00553483  0.21650308    -0.22800
C169        C  0.73287704  0.00045892  0.23059520     0.00200
H170        H  0.80405389  0.01422873  0.23545572     0.13900
H171        H  0.76380358  0.00655447  0.19272664     0.14000
O172        O  0.44993935  0.08246633  0.49531321    -0.79000
O173        O  0.44950325  0.91148985  0.49243938    -0.80500
O174        O  0.41476823  0.99760969  0.44705459    -0.77600
O175        O  0.41533499  0.99669060  0.54540032    -0.75900
O176        O  0.45145311  0.99765463  0.58124452    -0.77700
O177        O  0.45110102  0.99827396  0.41145520    -0.78700
O178        O  0.41453811  0.94845539  0.49390359    -0.80000
O179        O  0.41514784  0.04514531  0.49536958    -0.80300
Eu180      Eu  0.43970436  0.99688186  0.49597474     2.39200
O181        O  0.46966044  0.96650033  0.52601423    -0.87800
O182        O  0.46962600  0.02750201  0.46563006    -0.91400
C183        C  0.42265587  0.07285782  0.49528186     1.03300
C184        C  0.42219192  0.92080861  0.49199288     1.03100
C185        C  0.42344964  0.99823165  0.41959099     1.03100
C186        C  0.42396008  0.99701888  0.57291514     1.00900
H187        H  0.45727725  0.95453579  0.45283725     0.30700
O188        O  0.46970142  0.96648176  0.46573156    -1.00200
H189        H  0.45738621  0.04023730  0.53817823     0.30700
O190        O  0.46985150  0.02788632  0.52573854    -1.02700
O191        O  0.54870897  0.91097873  0.49933533    -0.80000
O192        O  0.55033471  0.08120031  0.49756682    -0.79500
O193        O  0.49996496  0.95022221  0.41000451    -0.77900
O194        O  0.49552178  0.94886246  0.58079301    -0.81300
O195        O  0.50047852  0.04677202  0.57914411    -0.79100
O196        O  0.50000811  0.04411290  0.41053569    -0.77800
O197        O  0.58502185  0.99503685  0.44708918    -0.79300
O198        O  0.58441679  0.99603347  0.54495964    -0.81200
O199        O  0.54918118  0.99554001  0.41102118    -0.78000
O200        O  0.54889826  0.99702539  0.58141504    -0.80600
O201        O  0.50054249  0.91301567  0.44473677    -0.76400
O202        O  0.49960484  0.08180795  0.44473078    -0.76400
O203        O  0.50085488  0.08361625  0.54396009    -0.76000
O204        O  0.49423514  0.91200474  0.54548538    -0.79500
O205        O  0.58389416  0.94786205  0.49845003    -0.79000
O206        O  0.58490872  0.04375142  0.49855951    -0.77300
Eu207      Eu  0.49924706  0.93529863  0.49570623     2.39800
Eu208      Eu  0.49993785  0.05854492  0.49509337     2.39600
Eu209      Eu  0.50022018  0.99700005  0.43620712     2.38400
Eu210      Eu  0.49983639  0.99731332  0.55600248     2.39900
Eu211      Eu  0.55959941  0.99614136  0.49600746     2.39800
O212        O  0.52962792  0.02738647  0.52536841    -0.91700
O213        O  0.52994287  0.96557905  0.46566564    -0.90600
C214        C  0.57605355  0.92028381  0.50004812     1.03500
C215        C  0.57745265  0.07142550  0.49907760     1.02200
C216        C  0.50020812  0.92259796  0.41744130     1.01600
C217        C  0.49332727  0.92127503  0.57282724     1.03600
C218        C  0.50108088  0.07443882  0.57125779     1.02500
C219        C  0.49957361  0.07183390  0.41757722     1.01400
C220        C  0.57670672  0.99483182  0.41948284     1.01400
C221        C  0.57637384  0.99655354  0.57260905     1.04000
H222        H  0.54353067  0.03970324  0.45311752     0.31400
O223        O  0.53074242  0.02769071  0.46558629    -1.03900
H224        H  0.54134408  0.95370855  0.53923620     0.33400
O225        O  0.52932489  0.96594465  0.52629904    -1.06400
N226        N  0.26413212  0.99813405  0.73077288    -0.02300
C227        C  0.26799494  0.99401113  0.76043522     0.00300
C228        C  0.24115866  0.99678766  0.77535978    -0.22600
C229        C  0.21998497  0.00276455  0.75420997    -0.22800
C230        C  0.23461730  0.00343586  0.72711371     0.00200
H231        H  0.23747432  0.99516411  0.79915240     0.13900
H232        H  0.19635588  0.00572091  0.75808312     0.14000
N233        N  0.73804190  0.98969626  0.72916125    -0.02300
C234        C  0.76782307  0.98493228  0.72639882     0.00300
C235        C  0.78125166  0.98474067  0.75418849    -0.22600
C236        C  0.75923631  0.98961348  0.77472086    -0.22800
C237        C  0.73312266  0.99263825  0.75885991     0.00200
H238        H  0.80470416  0.98177924  0.75899502     0.13900
H239        H  0.76184078  0.99031864  0.79869944     0.14000
N240        N  0.26555935  0.98719706  0.25969557    -0.02300
C241        C  0.26876864  0.98743642  0.22957877     0.00300
C242        C  0.24256101  0.97872588  0.21582456    -0.22600
C243        C  0.22250169  0.97274001  0.23800696    -0.22800
C244        C  0.23705094  0.97818437  0.26454221     0.00200
H245        H  0.23856193  0.97675586  0.19210527     0.13900
H246        H  0.19942466  0.96627090  0.23511613     0.14000
O247        O  0.58401587  0.99862133  0.04677132    -0.79000
O248        O  0.41310348  0.99562864  0.04090722    -0.80500
O249        O  0.49942518  0.04534794  0.07744796    -0.77600
O250        O  0.49884943  0.94731753  0.07980238    -0.75900
O251        O  0.50052828  0.91108238  0.04409733    -0.77700
O252        O  0.49952421  0.08097131  0.04111636    -0.78700
O253        O  0.44982816  0.99615754  0.07614963    -0.80000
O254        O  0.54590277  0.99774623  0.08058614    -0.80300
Eu255      Eu  0.49897906  0.99598551  0.05350005     2.39200
O256        O  0.46943128  0.96517363  0.02321781    -0.87800
O257        O  0.53001670  0.02593059  0.02377310    -0.91400
C258        C  0.57377344  0.99866660  0.07385782     1.03300
C259        C  0.42225120  0.99596779  0.06828746     1.03100
C260        C  0.49983352  0.07280007  0.06877381     1.03100
C261        C  0.49951332  0.91961657  0.07165503     1.00900
H262        H  0.45621700  0.03845718  0.03452486     0.30700
O263        O  0.46874293  0.02565389  0.02257542    -1.00200
H264        H  0.54259238  0.95413177  0.03813739     0.30700
O265        O  0.53080298  0.96615345  0.02476829    -1.02700
O266        O  0.41598171  0.99363196  0.94197409    -0.80000
O267        O  0.58766557  0.99431159  0.94579421    -0.79500
O268        O  0.45249859  0.07997743  0.98989130    -0.77900
O269        O  0.45333030  0.90964724  0.99569938    -0.81300
O270        O  0.54933069  0.91072318  0.99796760    -0.79100
O271        O  0.54639850  0.08170309  0.99395851    -0.77800
O272        O  0.50280153  0.04208932  0.90648244    -0.79300
O273        O  0.50133606  0.94505737  0.90884815    -0.81200
O274        O  0.50072664  0.07825502  0.94220810    -0.78000
O275        O  0.50141877  0.90950119  0.94518487    -0.80600
O276        O  0.41562902  0.04482696  0.98913676    -0.76400
O277        O  0.58431506  0.04779225  0.99640213    -0.76400
O278        O  0.58636793  0.94576555  0.00008913    -0.76000
O279        O  0.41616477  0.94443616  0.99386070    -0.79500
O280        O  0.45423655  0.99346537  0.90829122    -0.79000
O281        O  0.55104771  0.99167068  0.91039514    -0.77300
Eu282      Eu  0.43903109  0.99472124  0.99208163     2.39800
Eu283      Eu  0.56270052  0.99613248  0.99547776     2.39600
Eu284      Eu  0.49996001  0.05492856  0.99233048     2.38400
Eu285      Eu  0.50128053  0.93512582  0.99441707     2.39900
Eu286      Eu  0.50225589  0.99404172  0.93362046     2.39800
O287        O  0.53276063  0.96501233  0.96492000    -0.91700
O288        O  0.47035879  0.02436334  0.96194875    -0.90600
C289        C  0.42634159  0.99327113  0.91502675     1.03500
C290        C  0.57858860  0.99246386  0.91837606     1.02200
C291        C  0.42498087  0.07219940  0.98873954     1.01600
C292        C  0.42565342  0.91719929  0.99518587     1.03600
C293        C  0.57685971  0.91835518  0.00046116     1.02500
C294        C  0.57409946  0.07492109  0.99563660     1.01400
C295        C  0.50193025  0.06975186  0.91463634     1.01400
C296        C  0.50078794  0.91758967  0.91747131     1.04000
H297        H  0.54456913  0.03755496  0.95118207     0.31400
O298        O  0.53219818  0.02509204  0.96366034    -1.03900
H299        H  0.45901251  0.95133713  0.95080703     0.33400
O300        O  0.47093558  0.96423989  0.96328489    -1.06400
N301        N  0.51591618  0.22940803  0.22958416    -0.02300
C302        C  0.52260908  0.22557171  0.25880553     0.00300
C303        C  0.52512474  0.25286704  0.27297796    -0.22600
C304        C  0.51935004  0.27422417  0.25189773    -0.22800
C305        C  0.51362058  0.25926064  0.22555948     0.00200
H306        H  0.52909865  0.25676059  0.29646467     0.13900
H307        H  0.51872278  0.29809508  0.25549464     0.14000
N308        N  0.48060196  0.76028694  0.23102475    -0.02300
C309        C  0.47333251  0.73086014  0.22879891     0.00300
C310        C  0.46747979  0.71893389  0.25661128    -0.22600
C311        C  0.47202695  0.74129600  0.27685599    -0.22800
C312        C  0.48021464  0.76623666  0.26079413     0.00200
H313        H  0.46232498  0.69591581  0.26178269     0.13900
H314        H  0.47037427  0.73942268  0.30086094     0.14000
N315        N  0.47391421  0.75969519  0.75873854    -0.02300
C316        C  0.47326968  0.72982870  0.76373837     0.00300
C317        C  0.46419409  0.71471518  0.73848948    -0.22600
C318        C  0.45928015  0.73584460  0.71698238    -0.22800
C319        C  0.46577392  0.76319725  0.72973499     0.00200
H320        H  0.46187809  0.69081424  0.73590635     0.13900
H321        H  0.45300875  0.73159517  0.69406705     0.14000
N322        N  0.50497103  0.23408617  0.75911106    -0.02300
C323        C  0.51073130  0.23006427  0.72958638     0.00300
C324        C  0.50855526  0.25653675  0.71408514    -0.22600
C325        C  0.50120011  0.27789415  0.73440266    -0.22800
C326        C  0.49921450  0.26380290  0.76170511     0.00200
H327        H  0.51127483  0.25976205  0.69032366     0.13900
H328        H  0.49819390  0.30141573  0.72988753     0.14000
O329        O  0.99968282  0.40768154  0.04370680    -0.79000
O330        O  0.99770949  0.57775680  0.04734255    -0.80500
O331        O  0.04789583  0.49554401  0.08103019    -0.77600
O332        O  0.95009726  0.49152569  0.07903389    -0.75900
O333        O  0.91412729  0.49089688  0.04310169    -0.77700
O334        O  0.08372538  0.49723287  0.04499795    -0.78700
O335        O  0.99775610  0.53986991  0.08133425    -0.80000
O336        O  0.99918050  0.44444094  0.07905539    -0.80300
Eu337      Eu  0.99944103  0.49282857  0.05485329     2.39200
O338        O  0.96866031  0.52333817  0.02538790    -0.87800
O339        O  0.03080324  0.46303830  0.02513773    -0.91400
C340        C  0.99861481  0.41683533  0.07115441     1.03300
C341        C  0.99767496  0.56768414  0.07446228     1.03100
C342        C  0.07541700  0.49720522  0.07258810     1.03100
C343        C  0.92253938  0.49085326  0.07067044     1.00900
H344        H  0.04098816  0.53758734  0.03881110     0.30700
O345        O  0.02882639  0.52516266  0.02598874    -1.00200
H346        H  0.95799677  0.44922931  0.03607200     0.30700
O347        O  0.97049838  0.46196374  0.02392476    -1.02700
O348        O  0.99674386  0.58002727  0.94646844    -0.80000
O349        O  0.00405106  0.40932805  0.94329379    -0.79500
O350        O  0.08270053  0.54423950  0.99625357    -0.77900
O351        O  0.91439450  0.54039159  0.99481809    -0.81300
O352        O  0.91684361  0.44274210  0.99299883    -0.79100
O353        O  0.08604732  0.44851911  0.99462538    -0.77800
O354        O  0.04975349  0.49935089  0.91103051    -0.79300
O355        O  0.95074784  0.49590106  0.90923182    -0.81200
O356        O  0.08532212  0.50004213  0.94738172    -0.78000
O357        O  0.91487288  0.49440733  0.94528901    -0.80600
O358        O  0.04779400  0.58122311  0.99569558    -0.76400
O359        O  0.05239058  0.41025347  0.99361166    -0.76400
O360        O  0.95278716  0.40654540  0.99141439    -0.76000
O361        O  0.94807187  0.57863731  0.99607175    -0.79500
O362        O  0.99905460  0.54330494  0.91114473    -0.79000
O363        O  0.00229380  0.44669801  0.90861125    -0.77300
Eu364      Eu  0.99831182  0.55578487  0.99623777     2.39800
Eu365      Eu  0.00166400  0.43216925  0.99376288     2.39600
Eu366      Eu  0.05941705  0.49560637  0.99565024     2.38400
Eu367      Eu  0.93980844  0.49225533  0.99436774     2.39900
Eu368      Eu  0.00005152  0.49466502  0.93466705     2.39800
O369        O  0.97058177  0.46253550  0.96384744    -0.91700
O370        O  0.02884269  0.52566104  0.96578015    -0.90600
C371        C  0.99728214  0.57084218  0.91906002     1.03500
C372        C  0.00396729  0.41896914  0.91605408     1.02200
C373        C  0.07513666  0.57184151  0.99581293     1.01600
C374        C  0.92108460  0.56834815  0.99524378     1.03600
C375        C  0.92529197  0.41527918  0.99176396     1.02500
C376        C  0.07937595  0.42062084  0.99384731     1.01400
C377        C  0.07719793  0.50107817  0.91977473     1.01400
C378        C  0.92311635  0.49585484  0.91769089     1.04000
H379        H  0.04423365  0.45320676  0.95165670     0.31400
O380        O  0.03098926  0.46457872  0.96436330    -1.03900
H381        H  0.95670705  0.53628310  0.95303708     0.33400
O382        O  0.96950519  0.52412077  0.96540334    -1.06400
N383        N  0.76476692  0.49051805  0.23148068    -0.02300
C384        C  0.73496650  0.48653457  0.22753877     0.00300
C385        C  0.72009576  0.48925688  0.25442253    -0.22600
C386        C  0.74121718  0.49519758  0.27564192    -0.22800
C387        C  0.76829933  0.49588611  0.26107878     0.00200
H388        H  0.69627574  0.48787791  0.25805775     0.13900
H389        H  0.73734028  0.49824043  0.29926859     0.14000
N390        N  0.23400494  0.50631473  0.23220461    -0.02300
C391        C  0.26374781  0.51163352  0.22966600     0.00300
C392        C  0.27728905  0.51178623  0.25729608    -0.22600
C393        C  0.25540076  0.50608024  0.27773694    -0.22800
C394        C  0.22921514  0.50278145  0.26190424     0.00200
H395        H  0.30084708  0.51425158  0.26190611     0.13900
H396        H  0.25826036  0.50417054  0.30162003     0.14000
N397        N  0.23664708  0.52011644  0.76161514    -0.02300
C398        C  0.23416302  0.51769969  0.73154245     0.00300
C399        C  0.26105089  0.52407121  0.71788400    -0.22600
C400        C  0.28091987  0.53037586  0.74018456    -0.22800
C401        C  0.26547200  0.52766797  0.76664245     0.00200
H402        H  0.26581219  0.52357534  0.69423054     0.13900
H403        H  0.30455307  0.53451083  0.73754072     0.14000
N404        N  0.76169422  0.48126017  0.76010517    -0.02300
C405        C  0.76570977  0.47220088  0.73137225     0.00300
C406        C  0.73862575  0.46960365  0.71683239    -0.22600
C407        C  0.71712474  0.47765996  0.73685211    -0.22800
C408        C  0.73175466  0.48480146  0.76292040     0.00200
H409        H  0.73496558  0.46369277  0.69371635     0.13900
H410        H  0.69330012  0.47787621  0.73302277     0.14000
N411        N  0.26450901  0.25853918  0.97140020    -0.02300
C412        C  0.23452822  0.26284750  0.97264852     0.00300
C413        C  0.21949081  0.23675738  0.96604188    -0.22600
C414        C  0.24070711  0.21554640  0.96051105    -0.22800
C415        C  0.26808960  0.22931094  0.96396352     0.00200
H416        H  0.19558635  0.23342400  0.96582121     0.13900
H417        H  0.23660464  0.19218097  0.95595668     0.14000
O418        O  0.49795112  0.44493784  0.08180299    -0.79000
O419        O  0.49875399  0.44789500  0.91115389    -0.80500
O420        O  0.45196326  0.40886772  0.99330188    -0.77600
O421        O  0.54889824  0.41155671  0.99580876    -0.75900
O422        O  0.58468668  0.44771527  0.99700022    -0.77700
O423        O  0.41540899  0.44418212  0.99352296    -0.78700
O424        O  0.50002618  0.41194283  0.94719054    -0.80000
O425        O  0.49839960  0.41077587  0.04398808    -0.80300
Eu426      Eu  0.49974421  0.43576069  0.99571394     2.39200
O427        O  0.52963685  0.46638758  0.96543378    -0.87800
O428        O  0.46887117  0.46438200  0.02678120    -0.91400
C429        C  0.49772112  0.41783216  0.07184534     1.03300
C430        C  0.49899785  0.42040640  0.91980940     1.03100
C431        C  0.42429552  0.41670989  0.99263075     1.03100
C432        C  0.57638433  0.42007411  0.99655095     1.00900
H433        H  0.45715388  0.45344273  0.95246185     0.30700
O434        O  0.46948252  0.46572981  0.96518308    -1.00200
H435        H  0.54202951  0.45286913  0.03907893     0.30700
O436        O  0.52947323  0.46541858  0.02691666    -1.02700
O437        O  0.49770585  0.54729886  0.91274215    -0.80000
O438        O  0.49864883  0.54353425  0.08298331    -0.79500
O439        O  0.41479446  0.49713321  0.94755778    -0.77900
O440        O  0.58407731  0.49618447  0.94884126    -0.81300
O441        O  0.58443187  0.49704979  0.04375548    -0.79100
O442        O  0.41305437  0.49300656  0.04402925    -0.77800
O443        O  0.44906166  0.57927063  0.99732957    -0.79300
O444        O  0.54797932  0.58140613  0.99835179    -0.81200
O445        O  0.41319973  0.54300729  0.99644415    -0.78000
O446        O  0.58386981  0.54542455  0.99824481    -0.80600
O447        O  0.45025891  0.49972820  0.91101214    -0.76400
O448        O  0.44827932  0.49429955  0.08081042    -0.76400
O449        O  0.54943737  0.49549832  0.08073530    -0.76000
O450        O  0.54915515  0.49697616  0.91182415    -0.79500
O451        O  0.49703472  0.58214243  0.94992556    -0.79000
O452        O  0.49898794  0.57943579  0.04686061    -0.77300
Eu453      Eu  0.49944143  0.49716243  0.93551267     2.39800
Eu454      Eu  0.49874508  0.49462003  0.05789649     2.39600
Eu455      Eu  0.43881393  0.49438305  0.99622508     2.38400
Eu456      Eu  0.55895994  0.49642409  0.99659322     2.39900
Eu457      Eu  0.49878775  0.55602671  0.99768631     2.39800
O458        O  0.52869423  0.52559331  0.02778079    -0.91700
O459        O  0.46903234  0.52572962  0.96705604    -0.90600
C460        C  0.49671363  0.57455818  0.92218126     1.03500
C461        C  0.49885373  0.57103130  0.07434607     1.02200
C462        C  0.42289820  0.49944594  0.92008837     1.01600
C463        C  0.57640133  0.49633914  0.92125292     1.03600
C464        C  0.57678866  0.49640083  0.07132457     1.02500
C465        C  0.42087628  0.49362940  0.07164582     1.01400
C466        C  0.42157510  0.57061311  0.99682569     1.01400
C467        C  0.57558564  0.57299559  0.99866644     1.04000
H468        H  0.45578584  0.53698224  0.03965776     0.31400
O469        O  0.46853084  0.52480074  0.02727322    -1.03900
H470        H  0.54193107  0.54017706  0.95429325     0.33400
O471        O  0.52947748  0.52733433  0.96632309    -1.06400
N472        N  0.73612739  0.73129874  0.00833989    -0.02300
C473        C  0.73345852  0.76049790  0.01610948     0.00300
C474        C  0.76115900  0.77393289  0.01780363    -0.22600
C475        C  0.78169840  0.75244718  0.01071099    -0.22800
C476        C  0.76587008  0.72658761  0.00510566     0.00200
H477        H  0.76583445  0.79710576  0.02277651     0.13900
H478        H  0.80565770  0.75526311  0.00993562     0.14000
N479        N  0.26412892  0.73031721  0.00442097    -0.02300
C480        C  0.26689046  0.76037818  0.00240254     0.00300
C481        C  0.23968988  0.77405607  0.00691500    -0.22600
C482        C  0.21942268  0.75172458  0.01204203    -0.22800
C483        C  0.23495089  0.72520586  0.01031489     0.00200
H484        H  0.23520889  0.79777014  0.00693135     0.13900
H485        H  0.19576598  0.75444196  0.01592465     0.14000
N486        N  0.73341554  0.26182868  0.97103219    -0.02300
C487        C  0.76243303  0.26465501  0.96277366     0.00300
C488        C  0.77382603  0.23762163  0.95338953    -0.22600
C489        C  0.75124402  0.21720741  0.95621565    -0.22800
C490        C  0.72684158  0.23256449  0.96699784     0.00200
H491        H  0.79655851  0.23297305  0.94677569     0.13900
H492        H  0.75273621  0.19346751  0.95204338     0.14000
C493        C  0.61495465  0.34405956  0.99525733    -0.27100
C494        C  0.64517512  0.35221593  0.99478046     0.06500
C495        C  0.65261059  0.38270682  0.99611088     0.26200
C496        C  0.63028796  0.40448287  0.99729765    -0.11500
C497        C  0.59992570  0.39649427  0.99683178    -0.25500
C498        C  0.59254917  0.36581112  0.99611963     0.37000
C499        C  0.66873639  0.32923343  0.99031589     0.06600
F500        F  0.68158379  0.39149602  0.99596047    -0.19300
H501        H  0.63690531  0.42771299  0.99804989     0.16400
F502        F  0.56370988  0.35661761  0.99547195    -0.23000
H503        H  0.60861230  0.32077991  0.99379630     0.18200
C504        C  0.67005154  0.30309604  0.00769220     0.26200
C505        C  0.69215367  0.28164317  0.00223358    -0.11500
C506        C  0.71282316  0.28539462  0.97890962    -0.25600
C507        C  0.71150419  0.31162761  0.96177474     0.37100
C508        C  0.68981355  0.33319106  0.96751139    -0.27200
F509        F  0.65013994  0.29832001  0.02998922    -0.19300
H510        H  0.69295141  0.26195711  0.01612585     0.16400
F511        F  0.73015303  0.31582387  0.93835771    -0.23000
H512        H  0.68888194  0.35271355  0.95334337     0.18200
C513        C  0.38294051  0.64602859  0.99150457    -0.27100
C514        C  0.35367333  0.63891399  0.99987552     0.06500
C515        C  0.34655612  0.60906924  0.00652351     0.26200
C516        C  0.36852520  0.58690750  0.00502114    -0.11500
C517        C  0.39808532  0.59408228  0.99715227    -0.25500
C518        C  0.40495723  0.62402267  0.99021916     0.37000
C519        C  0.33079661  0.66278331  0.00126152     0.06600
F520        F  0.31826314  0.60126413  0.01398333    -0.19300
H521        H  0.36242536  0.56415570  0.01040744     0.16400
F522        F  0.43289073  0.63217826  0.98188210    -0.23000
H523        H  0.38885083  0.66886096  0.98622865     0.18200
C524        C  0.31418883  0.66771132  0.02741155     0.26200
C525        C  0.29248006  0.69005562  0.02825760    -0.11500
C526        C  0.28739012  0.70826326  0.00338014    -0.25600
C527        C  0.30439601  0.70389678  0.97745301     0.37100
C528        C  0.32588290  0.68126270  0.97642436    -0.27200
F529        F  0.31948505  0.65144877  0.05235367    -0.19300
H530        H  0.27967845  0.69343475  0.04845243     0.16400
F531        F  0.29947961  0.72080854  0.95288604    -0.23000
H532        H  0.33846431  0.67786177  0.95608336     0.18200
C533        C  0.65184772  0.61157231  0.00194929    -0.27100
C534        C  0.64383412  0.64181995  0.00195502     0.06500
C535        C  0.61350695  0.64933473  0.00020272     0.26200
C536        C  0.59159511  0.62699440  0.99919794    -0.11500
C537        C  0.59936992  0.59653890  0.99958238    -0.25500
C538        C  0.63002262  0.58913414  0.00073522     0.37000
C539        C  0.66719050  0.66540017  0.00334582     0.06600
F540        F  0.60513270  0.67836386  0.99859505    -0.19300
H541        H  0.56844751  0.63366391  0.99788623     0.16400
F542        F  0.63914391  0.56027202  0.00060673    -0.23000
H543        H  0.67514077  0.60531187  0.00304915     0.18200
C544        C  0.66787731  0.68616065  0.02690295     0.26200
C545        C  0.69053868  0.70765881  0.02840361    -0.11500
C546        C  0.71244370  0.70946937  0.00606533    -0.25600
C547        C  0.71085045  0.68966127  0.98174526     0.37100
C548        C  0.68883850  0.66743716  0.98079898    -0.27200
F549        F  0.64696116  0.68530080  0.04876084    -0.19300
H550        H  0.69119716  0.72278270  0.04722889     0.16400
F551        F  0.72984679  0.69251697  0.95838417    -0.23000
H552        H  0.68822826  0.65218663  0.96205847     0.18200
C553        C  0.30994928  0.32194415  0.00297761    -0.27100
C554        C  0.33274255  0.32469857  0.98163294     0.06500
C555        C  0.33294166  0.30497382  0.95717827     0.26200
C556        C  0.31066888  0.28320348  0.95416057    -0.11500
C557        C  0.28774431  0.28061728  0.97536983    -0.25500
C558        C  0.28776614  0.30007346  0.00002518     0.37000
C559        C  0.35617026  0.34810545  0.98498760     0.06600
F560        F  0.35414495  0.30736253  0.93570850    -0.19300
H561        H  0.31096000  0.26861032  0.93490764     0.16400
F562        F  0.26685947  0.29743693  0.02171019    -0.23000
H563        H  0.30957572  0.33654321  0.02223285     0.18200
C564        C  0.34845787  0.37826687  0.98876025     0.26200
C565        C  0.37062286  0.40021030  0.99115825    -0.11500
C566        C  0.40110256  0.39269203  0.99045585    -0.25600
C567        C  0.40875160  0.36221365  0.98745937     0.37100
C568        C  0.38649501  0.34036989  0.98448497    -0.27200
F569        F  0.31941254  0.38666684  0.98947487    -0.19300
H570        H  0.36376895  0.42323335  0.99358675     0.16400
F571        F  0.43765121  0.35327258  0.98742542    -0.23000
H572        H  0.39296952  0.31721495  0.98211808     0.18200
C573        C  0.69139916  0.47158139  0.83446520    -0.27100
C574        C  0.67218338  0.49633374  0.83524314     0.06500
C575        C  0.67603708  0.51939596  0.81432668     0.26200
C576        C  0.69730819  0.51654627  0.79182515    -0.11500
C577        C  0.71535090  0.49110617  0.79036455    -0.25500
C578        C  0.71284405  0.46895511  0.81213533     0.37000
C579        C  0.64758581  0.49706967  0.85716216     0.06600
F580        F  0.65885160  0.54428713  0.81520435    -0.19300
H581        H  0.69892595  0.53359947  0.77479705     0.16400
F582        F  0.72925520  0.44361649  0.81016043    -0.23000
H583        H  0.68873648  0.45346317  0.85019718     0.18200
C584        C  0.61822781  0.50394545  0.84846230     0.26200
C585        C  0.59519561  0.50365462  0.86937279    -0.11500
C586        C  0.60084196  0.49600257  0.89916087    -0.25600
C587        C  0.63017719  0.48837784  0.90763971     0.37100
C588        C  0.65320162  0.48915835  0.88683884    -0.27200
F589        F  0.61150412  0.50990455  0.81958265    -0.19300
H590        H  0.57288599  0.50936435  0.86216129     0.16400
F591        F  0.63675645  0.47967996  0.93587479    -0.23000
H592        H  0.67555580  0.48347512  0.89396389     0.18200
C593        C  0.31078559  0.49211621  0.82641703    -0.27100
C594        C  0.32547054  0.51703397  0.83834465     0.06500
C595        C  0.31686386  0.54583860  0.82959648     0.26200
C596        C  0.29483486  0.54947748  0.80791696    -0.11500
C597        C  0.28121849  0.52447270  0.79500672    -0.25500
C598        C  0.28881188  0.49576139  0.80478192     0.37000
C599        C  0.35050091  0.51253050  0.85898373     0.06600
F600        F  0.33040909  0.57027801  0.84130855    -0.19300
H601        H  0.28951592  0.57167069  0.80002813     0.16400
F602        F  0.27692332  0.47125895  0.79147461    -0.23000
H603        H  0.31740260  0.46979675  0.83284259     0.18200
C604        C  0.34580036  0.49813483  0.88625005     0.26200
C605        C  0.36957891  0.49354247  0.90566747    -0.11500
C606        C  0.39865193  0.50258054  0.89793701    -0.25600
C607        C  0.40347482  0.51603935  0.86995843     0.37100
C608        C  0.37941650  0.52130633  0.85084666    -0.27200
F609        F  0.31808439  0.48888418  0.89420852    -0.19300
H610        H  0.36516475  0.48285205  0.92686199     0.16400
F611        F  0.43116837  0.52467462  0.86128708    -0.23000
H612        H  0.38335500  0.53191723  0.82950979     0.18200
C613        C  0.30534347  0.48278292  0.16298850    -0.27100
C614        C  0.32611044  0.50583674  0.15850437     0.06500
C615        C  0.32362388  0.53226688  0.17523797     0.26200
C616        C  0.30143960  0.53493813  0.19689678    -0.11500
C617        C  0.28148936  0.51141112  0.20214469    -0.25500
C618        C  0.28326738  0.48541914  0.18482007     0.37000
C619        C  0.35048759  0.50182405  0.13668026     0.06600
F620        F  0.34297750  0.55520349  0.17110213    -0.19300
H621        H  0.30056542  0.55490079  0.21051917     0.16400
F622        F  0.26530954  0.46173717  0.19066756    -0.23000
H623        H  0.30709224  0.46219404  0.15044759     0.18200
C624        C  0.38050047  0.50459270  0.14525037     0.26200
C625        C  0.40325028  0.50101168  0.12421978    -0.11500
C626        C  0.39656268  0.49466688  0.09423004    -0.25600
C627        C  0.36633097  0.49087935  0.08602518     0.37100
C628        C  0.34369157  0.49443695  0.10711662    -0.27200
F629        F  0.38784955  0.51037141  0.17404130    -0.19300
H630        H  0.42613545  0.50374497  0.13140243     0.16400
F631        F  0.35837864  0.48386005  0.05766591    -0.23000
H632        H  0.32067602  0.49182101  0.10025255     0.18200
C633        C  0.62080692  0.49539245  0.14376374    -0.27100
C634        C  0.65014811  0.49255528  0.13310544     0.06500
C635        C  0.65528183  0.49213127  0.10232592     0.26200
C636        C  0.63135241  0.49377517  0.08256321    -0.11500
C637        C  0.60173656  0.49608905  0.09305937    -0.25500
C638        C  0.59678270  0.49741151  0.12398993     0.37000
C639        C  0.67502588  0.48865748  0.15430998     0.06600
F640        F  0.68333091  0.48897464  0.09138498    -0.19300
H641        H  0.63616467  0.49271408  0.05892069     0.16400
F642        F  0.56885631  0.50057532  0.13519148    -0.23000
H643        H  0.61653239  0.49599309  0.16752895     0.18200
C644        C  0.69944170  0.50843140  0.15486622     0.26200
C645        C  0.72115811  0.50590956  0.17720447    -0.11500
C646        C  0.71864536  0.48369211  0.19909065    -0.25600
C647        C  0.69538030  0.46273293  0.19709207     0.37100
C648        C  0.67372840  0.46532781  0.17499603    -0.27200
F649        F  0.70107104  0.53140416  0.13523750    -0.19300
H650        H  0.73855841  0.52261817  0.17873938     0.16400
F651        F  0.69265072  0.44073351  0.21769068    -0.23000
H652        H  0.65536511  0.44960049  0.17455039     0.18200
C653        C  0.84216936  0.59970349  0.99379140    -0.27100
C654        C  0.84751332  0.63037236  0.99172249     0.06500
C655        C  0.87713880  0.64076068  0.99099073     0.26200
C656        C  0.90095305  0.62065267  0.99234780    -0.11500
C657        C  0.89572570  0.58976596  0.99430280    -0.25500
C658        C  0.86584863  0.57954021  0.99484527     0.37000
C659        C  0.82226474  0.65161276  0.99186527     0.06600
F660        F  0.88304361  0.67045347  0.98983122    -0.19300
H661        H  0.92348911  0.62933979  0.99187987     0.16400
F662        F  0.85921742  0.55003480  0.99648577    -0.23000
H663        H  0.81951281  0.59132288  0.99446601     0.18200
C664        C  0.81992859  0.67365075  0.96976685     0.26200
C665        C  0.79970095  0.69701452  0.97319563    -0.11500
C666        C  0.78084496  0.69819928  0.99811614    -0.25600
C667        C  0.78101421  0.67463686  0.01868604     0.37100
C668        C  0.80173063  0.65148753  0.01557894    -0.27200
F669        F  0.83795110  0.67313277  0.94545079    -0.19300
H670        H  0.79961417  0.71496665  0.95704309     0.16400
F671        F  0.76303162  0.67533679  0.04302104    -0.23000
H672        H  0.80296592  0.63446261  0.03264891     0.18200
C673        C  0.88033297  0.34675870  0.97035016    -0.27100
C674        C  0.85224067  0.35378716  0.98236711     0.06500
C675        C  0.84907852  0.37991348  0.99937026     0.26200
C676        C  0.87330232  0.39916664  0.00316004    -0.11500
C677        C  0.90119507  0.39270297  0.99029866    -0.25500
C678        C  0.90466212  0.36592685  0.97430385     0.37000
C679        C  0.82651785  0.33371076  0.97695805     0.06600
F680        F  0.82231044  0.38745281  0.01131274    -0.19300
H681        H  0.87007734  0.41952998  0.01578517     0.16400
F682        F  0.93105532  0.35892516  0.96126872    -0.23000
H683        H  0.88336280  0.32643693  0.95761849     0.18200
C684        C  0.81991215  0.32379827  0.94792154     0.26200
C685        C  0.79789227  0.30227150  0.94333164    -0.11500
C686        C  0.78156143  0.29092533  0.96742064    -0.25600
C687        C  0.78707501  0.30171421  0.99627436     0.37100
C688        C  0.80943571  0.32300159  0.00097692    -0.27200
F689        F  0.83504189  0.33462647  0.92404320    -0.19300
H690        H  0.79396490  0.29391195  0.92099543     0.16400
F691        F  0.77248044  0.29000329  0.02007009    -0.23000
H692        H  0.81435709  0.33008110  0.02354121     0.18200
C693        C  0.15374376  0.60307530  0.99215092    -0.27100
C694        C  0.14949655  0.63245560  0.00155126     0.06500
C695        C  0.12029880  0.64279640  0.00683619     0.26200
C696        C  0.09589606  0.62344884  0.00395031    -0.11500
C697        C  0.10026711  0.59348732  0.99589901    -0.25500
C698        C  0.12959995  0.58370265  0.98949246     0.37000
C699        C  0.17562460  0.65209051  0.00604020     0.06600
F700        F  0.11541737  0.67160780  0.01480641    -0.19300
H701        H  0.07374217  0.63170456  0.00881153     0.16400
F702        F  0.13531596  0.55516755  0.98112888    -0.23000
H703        H  0.17599542  0.59481199  0.98770513     0.18200
C704        C  0.17911408  0.66786883  0.03287202     0.26200
C705        C  0.20091161  0.68991790  0.03526395    -0.11500
C706        C  0.21990636  0.69605396  0.01122826    -0.25600
C707        C  0.21872393  0.67801027  0.98563072     0.37100
C708        C  0.19660771  0.65610439  0.98308433    -0.27200
F709        F  0.16064660  0.66277078  0.05630546    -0.19300
H710        H  0.20178345  0.70352633  0.05522590     0.16400
F711        F  0.23675263  0.68361418  0.96197087    -0.23000
H712        H  0.19464913  0.64366393  0.96245416     0.18200
C713        C  0.17743480  0.31269268  0.00789514    -0.27100
C714        C  0.17751504  0.33712439  0.98846979     0.06500
C715        C  0.19971994  0.33916949  0.96635907     0.26200
C716        C  0.22028689  0.31590806  0.96261349    -0.11500
C717        C  0.21861178  0.29047009  0.98073689    -0.25500
C718        C  0.19757610  0.28943299  0.00392688     0.23800
C719        C  0.15263725  0.35864283  0.98978808     0.06600
F720        F  0.19993924  0.36238476  0.94695433    -0.19300
H721        H  0.23608387  0.31680329  0.94436259     0.16400
F722        F  0.19548558  0.26505826  0.02174302    -0.23000
H723        H  0.16073463  0.31096539  0.02527278     0.18200
C724        C  0.12304556  0.34858205  0.98717012     0.26200
C725        C  0.09937617  0.36871812  0.98870466    -0.11500
C726        C  0.10470937  0.39932919  0.99282374    -0.25600
C727        C  0.13457755  0.40933940  0.99532138     0.37100
C728        C  0.15818736  0.38910185  0.99375367    -0.27200
F729        F  0.11708335  0.31926632  0.98239372    -0.19300
H730        H  0.07686133  0.36028721  0.98635948     0.16400
F731        F  0.14121576  0.43862749  0.99939061    -0.23000
H732        H  0.18085983  0.39718102  0.99591856     0.18200
C733        C  0.88222395  0.49646223  0.84250703    -0.27100
C734        C  0.85212318  0.49671250  0.85133133     0.06500
C735        C  0.84563774  0.49832805  0.88199277     0.26200
C736        C  0.86874395  0.49885097  0.90314236    -0.11500
C737        C  0.89898149  0.49745091  0.89445004    -0.25500
C738        C  0.90536734  0.49683258  0.86360411     0.37000
C739        C  0.82807088  0.49293303  0.82845227     0.06600
F740        F  0.81697879  0.49767514  0.89169092    -0.19300
H741        H  0.86278140  0.49955749  0.92652902     0.16400
F742        F  0.93389893  0.49571298  0.85360491    -0.23000
H743        H  0.88785566  0.49539020  0.81903988     0.18200
C744        C  0.80357298  0.51250516  0.82645404     0.26200
C745        C  0.78225375  0.50894247  0.80373046    -0.11500
C746        C  0.78411006  0.48515384  0.78323216    -0.25600
C747        C  0.80781423  0.46482116  0.78628002     0.37100
C748        C  0.82975301  0.46910415  0.80812069    -0.27200
F749        F  0.80049928  0.53543562  0.84599825    -0.19300
H750        H  0.76435117  0.52499199  0.80204749     0.16400
F751        F  0.80925116  0.44010019  0.76889207    -0.23000
H752        H  0.84785980  0.45322474  0.80964878     0.18200
C753        C  0.15276248  0.51211204  0.88146843    -0.27100
C754        C  0.14488445  0.51077549  0.85121197     0.06500
C755        C  0.11480843  0.50631211  0.84364947     0.26200
C756        C  0.09310937  0.50340376  0.86596162    -0.11500
C757        C  0.10084012  0.50447146  0.89641060    -0.25500
C758        C  0.13117506  0.50884248  0.90386440     0.37000
C759        C  0.16823065  0.51346060  0.82776278     0.06600
F760        F  0.10630924  0.50520165  0.81462896    -0.19300
H761        H  0.07014839  0.50014661  0.85925624     0.16400
F762        F  0.14023200  0.50990690  0.93271054    -0.23000
H763        H  0.17586684  0.51524689  0.88778011     0.18200
C764        C  0.18714161  0.53850324  0.82664001     0.26200
C765        C  0.20947787  0.54042801  0.80488176    -0.11500
C766        C  0.21352709  0.51745958  0.78391716    -0.25600
C767        C  0.19498291  0.49219878  0.78533393     0.37100
C768        C  0.17235290  0.49041281  0.80687075    -0.27200
F769        F  0.18367051  0.56133296  0.84625077    -0.19300
H770        H  0.22357384  0.56004553  0.80415333     0.16400
F771        F  0.19953296  0.46878475  0.76671871    -0.23000
H772        H  0.15845456  0.47065390  0.80773776     0.18200
C773        C  0.15156697  0.49780270  0.11077375    -0.27100
C774        C  0.14382208  0.50180154  0.14077261     0.06500
C775        C  0.11363287  0.50550307  0.14829927     0.26200
C776        C  0.09153548  0.50420125  0.12616128    -0.11500
C777        C  0.09911308  0.49931850  0.09601133    -0.25500
C778        C  0.12963098  0.49659693  0.08860831     0.37000
C779        C  0.16743669  0.50238080  0.16395964     0.06600
F780        F  0.10563340  0.51095994  0.17699423    -0.19300
H781        H  0.06847081  0.50712196  0.13267013     0.16400
F782        F  0.13850046  0.49236434  0.05998868    -0.23000
H783        H  0.17475407  0.49521236  0.10453070     0.18200
C784        C  0.16797262  0.48105868  0.18690687     0.26200
C785        C  0.19027289  0.48200538  0.20874161    -0.11500
C786        C  0.21214622  0.50451420  0.20849754    -0.25600
C787        C  0.21176606  0.52560937  0.18520920     0.37100
C788        C  0.18980910  0.52427303  0.16303821    -0.27200
F789        F  0.14717953  0.45905593  0.18794318    -0.19300
H790        H  0.19047953  0.46505969  0.22589543     0.16400
F791        F  0.23183192  0.54825416  0.18446892    -0.23000
H792        H  0.18978292  0.54085668  0.14549011     0.18200
C793        C  0.84727945  0.48697243  0.11086195    -0.27100
C794        C  0.85589416  0.48948340  0.14085382     0.06500
C795        C  0.88637665  0.49195939  0.14762470     0.26200
C796        C  0.90770627  0.49207513  0.12479062    -0.11500
C797        C  0.89923315  0.49006751  0.09456905    -0.25500
C798        C  0.86854519  0.48747099  0.08790984     0.37000
C799        C  0.83293404  0.48950008  0.16483128     0.06600
F800        F  0.89560627  0.49377216  0.17638881    -0.19300
H801        H  0.93098294  0.49392580  0.13091730     0.16400
F802        F  0.85887510  0.48547643  0.05930723    -0.23000
H803        H  0.82388411  0.48505934  0.10518054     0.18200
C804        C  0.83011626  0.51382872  0.18450435     0.26200
C805        C  0.80782473  0.51391851  0.20641492    -0.11500
C806        C  0.78790734  0.48987942  0.20909550    -0.25600
C807        C  0.79101327  0.46533617  0.18979967     0.37100
C808        C  0.81321638  0.46527844  0.16776739    -0.27200
F809        F  0.84830308  0.53791396  0.18192521    -0.19300
H810        H  0.80569157  0.53303078  0.22104038     0.16400
F811        F  0.77304298  0.44115271  0.19277106    -0.23000
H812        H  0.81521830  0.44618008  0.15308762     0.18200
C813        C  0.49238279  0.37986753  0.84582108    -0.27100
C814        C  0.49381801  0.34999998  0.85510420     0.06500
C815        C  0.49656132  0.34348650  0.88551366     0.26200
C816        C  0.49850386  0.36649868  0.90623659    -0.11500
C817        C  0.49739858  0.39653635  0.89711433    -0.25500
C818        C  0.49391269  0.40301081  0.86659763     0.37000
C819        C  0.49316654  0.32567704  0.83301793     0.06600
F820        F  0.49684486  0.31481275  0.89522961    -0.19300
H821        H  0.50071726  0.36061334  0.92954080     0.16400
F822        F  0.49184506  0.43154604  0.85672384    -0.23000
H823        H  0.49043171  0.38530271  0.82237991     0.18200
C824        C  0.47124481  0.32495667  0.81072722     0.26200
C825        C  0.47189130  0.30269803  0.78910708    -0.11500
C826        C  0.49455736  0.28113123  0.78907979    -0.25600
C827        C  0.51600942  0.28128530  0.81178587     0.37100
C828        C  0.51520459  0.30341800  0.83367381    -0.27200
F829        F  0.44966001  0.34612190  0.80941784    -0.19300
H830        H  0.45551303  0.30315222  0.77135881     0.16400
F831        F  0.53910716  0.26178528  0.81137407    -0.23000
H832        H  0.53264103  0.30401470  0.85036361     0.18200
C833        C  0.46675584  0.69237465  0.83847100    -0.27100
C834        C  0.48997473  0.67135435  0.83652316     0.06500
C835        C  0.51022336  0.67327041  0.81264533     0.26200
C836        C  0.50594301  0.69432932  0.79015281    -0.11500
C837        C  0.48177628  0.71410029  0.79126607    -0.25500
C838        C  0.46277203  0.71376947  0.81608960     0.37000
C839        C  0.49204255  0.64664909  0.85846234     0.06600
F840        F  0.53368000  0.65427122  0.81063844    -0.19300
H841        H  0.52073636  0.69432960  0.77104623     0.16400
F842        F  0.43916442  0.73260436  0.81758832    -0.23000
H843        H  0.45081501  0.69130385  0.85657919     0.18200
C844        C  0.49052877  0.65232745  0.88920512     0.26200
C845        C  0.49196953  0.62883942  0.90960248    -0.11500
C846        C  0.49502457  0.59907838  0.89988750    -0.25600
C847        C  0.49638185  0.59342568  0.86897980     0.37100
C848        C  0.49487629  0.61699668  0.84860803    -0.27200
F849        F  0.48833377  0.68069172  0.89958667    -0.19300
H850        H  0.49077177  0.63412259  0.93313776     0.16400
F851        F  0.49916357  0.56522574  0.85827592    -0.23000
H852        H  0.49557122  0.61201218  0.82498052     0.18200
C853        C  0.50867366  0.68922824  0.16461126    -0.27100
C854        C  0.48777003  0.66627997  0.16026109     0.06500
C855        C  0.46099949  0.66659704  0.17646124     0.26200
C856        C  0.45558478  0.68911797  0.19719976    -0.11500
C857        C  0.47683413  0.71155428  0.20235704    -0.25500
C858        C  0.50344436  0.71157963  0.18578173     0.37000
C859        C  0.49370783  0.64189793  0.13894331     0.06600
F860        F  0.44022194  0.64490949  0.17241106    -0.19300
H861        H  0.43515734  0.68847625  0.21008638     0.16400
F862        F  0.52532463  0.73166576  0.19167620    -0.23000
H863        H  0.52955659  0.68911053  0.15247437     0.18200
C864        C  0.49895712  0.64819066  0.10881438     0.26200
C865        C  0.50128811  0.62498962  0.08821497    -0.11500
C866        C  0.49850256  0.59499351  0.09721690    -0.25600
C867        C  0.49438121  0.58874617  0.12775246     0.37100
C868        C  0.49206191  0.61207268  0.14833104    -0.27200
F869        F  0.50033694  0.67681232  0.09905761    -0.19300
H870        H  0.50464887  0.63069779  0.06500134     0.16400
F871        F  0.49157393  0.56030437  0.13773676    -0.23000
H872        H  0.48827860  0.60688900  0.17161703     0.18200
C873        C  0.50016460  0.37188513  0.14330375    -0.27100
C874        C  0.49668875  0.34283423  0.13196960     0.06500
C875        C  0.49219143  0.33879189  0.10137056     0.26200
C876        C  0.49232946  0.36332677  0.08227049    -0.11500
C877        C  0.49660903  0.39253845  0.09326366    -0.25500
C878        C  0.49993108  0.39660916  0.12425888     0.37000
C879        C  0.49752270  0.31708376  0.15247315     0.06600
F880        F  0.48700162  0.31118456  0.09003659    -0.19300
H881        H  0.48892116  0.35929445  0.05870825     0.16400
F882        F  0.50312319  0.42424630  0.13625690    -0.23000
H883        H  0.50331500  0.37536688  0.16700580     0.18200
C884        C  0.51951261  0.29481316  0.14980862     0.26200
C885        C  0.52323847  0.27376110  0.17260195    -0.11500
C886        C  0.50498935  0.27480923  0.19797661    -0.25600
C887        C  0.48130461  0.29520494  0.19910838     0.37100
C888        C  0.47773671  0.31626488  0.17660433    -0.27200
F889        F  0.53884009  0.29495232  0.12650774    -0.19300
H890        H  0.54163713  0.25817522  0.17147890     0.16400
F891        F  0.46269722  0.29584021  0.22297815    -0.23000
H892        H  0.46031175  0.33284831  0.17865327     0.18200
C893        C  0.60406015  0.15436368  0.99713305    -0.27100
C894        C  0.63395997  0.14973571  0.98984833     0.06500
C895        C  0.64458461  0.12046524  0.98610562     0.26200
C896        C  0.62533661  0.09613628  0.98915241    -0.11500
C897        C  0.59510282  0.10056334  0.99573215    -0.25500
C898        C  0.58473210  0.13012844  0.00024480     0.37000
C899        C  0.65451033  0.17523380  0.98706182     0.06600
F900        F  0.67345956  0.11548853  0.97856549    -0.19300
H901        H  0.63394692  0.07388691  0.98543675     0.16400
F902        F  0.55592191  0.13587274  0.00757827    -0.23000
H903        H  0.59573756  0.17678648  0.00058055     0.18200
C904        C  0.65096163  0.19684929  0.96457115     0.26200
C905        C  0.67378150  0.21755380  0.95915962    -0.11500
C906        C  0.69966205  0.21711902  0.97666401    -0.25600
C907        C  0.70163030  0.19757742  0.00093493     0.37100
C908        C  0.67933941  0.17659028  0.00588755    -0.27200
F909        F  0.62655069  0.19660006  0.94668683    -0.19300
H910        H  0.67204809  0.23267671  0.94042173     0.16400
F911        F  0.72599798  0.19781668  0.01886065    -0.23000
H912        H  0.68196504  0.16056890  0.02375565     0.18200
C913        C  0.39042731  0.84012298  0.99054793    -0.27100
C914        C  0.36069618  0.84643894  0.99733477     0.06500
C915        C  0.35229520  0.87586704  0.00401625     0.26200
C916        C  0.37347892  0.89879449  0.00332548    -0.11500
C917        C  0.40337833  0.89269411  0.99611615    -0.25500
C918        C  0.41167771  0.86289367  0.98995602     0.37000
C919        C  0.33856731  0.82215066  0.99715351     0.06600
F920        F  0.32371106  0.88233985  0.01153220    -0.19300
H921        H  0.36648933  0.92129779  0.00864449     0.16400
F922        F  0.44017611  0.85561738  0.98284339    -0.23000
H923        H  0.39711438  0.81747651  0.98541197     0.18200
C924        C  0.31849275  0.81924512  0.97335435     0.26200
C925        C  0.29645336  0.79724881  0.97416043    -0.11500
C926        C  0.29451318  0.77758540  0.99839026    -0.25600
C927        C  0.31555585  0.77947733  0.02147251     0.37100
C928        C  0.33745690  0.80175049  0.02083478    -0.27200
F929        F  0.31986753  0.83804477  0.94968858    -0.19300
H930        H  0.28009601  0.79625262  0.95641599     0.16400
F931        F  0.31366290  0.76119221  0.04549374    -0.23000
H932        H  0.35298891  0.80370414  0.03922203     0.18200
C933        C  0.60915664  0.84001814  0.00602505    -0.27100
C934        C  0.63831721  0.84565949  0.01561872     0.06500
C935        C  0.64743607  0.87545909  0.01993201     0.26200
C936        C  0.62761796  0.89903444  0.01466811    -0.11500
C937        C  0.59837820  0.89343084  0.00488570    -0.25500
C938        C  0.58939550  0.86340620  0.00066895     0.37000
C939        C  0.65970987  0.82055751  0.01834710     0.06600
F940        F  0.67586129  0.88189823  0.02807367    -0.19300
H941        H  0.63521427  0.92169559  0.01825780     0.16400
F942        F  0.56160253  0.85633456  0.99094150    -0.23000
H943        H  0.60169162  0.81730379  0.00238304     0.18200
C944        C  0.67842010  0.81766577  0.04333810     0.26200
C945        C  0.70140938  0.79664791  0.04322006    -0.11500
C946        C  0.70553004  0.77764834  0.01866602    -0.25600
C947        C  0.68544187  0.77890015  0.99474102     0.37100
C948        C  0.66272066  0.80019115  0.99465174    -0.27200
F949        F  0.67482891  0.83545264  0.06758631    -0.19300
H950        H  0.71666286  0.79580443  0.06192245     0.16400
F951        F  0.68932409  0.76140183  0.97033802    -0.23000
H952        H  0.64850790  0.80188265  0.97521510     0.18200
C953        C  0.32390732  0.16920077  0.94659616    -0.27100
C954        C  0.34052352  0.16837562  0.97306576     0.06500
C955        C  0.33594733  0.19069960  0.99471829     0.26200
C956        C  0.31385828  0.21234728  0.99054769    -0.11500
C957        C  0.29607976  0.21198394  0.96482794    -0.25500
C958        C  0.30179767  0.19066880  0.94252752     0.37000
C959        C  0.36180739  0.14364965  0.97817734     0.06600
F960        F  0.35139908  0.19039003  0.02072937    -0.19300
H961        H  0.30932317  0.22813104  0.00827556     0.16400
F962        F  0.28514716  0.18989991  0.91727056    -0.23000
H963        H  0.32755375  0.15267274  0.92933835     0.18200
C964        C  0.35301209  0.11373626  0.97416563     0.26200
C965        C  0.37341127  0.09058826  0.97829157    -0.11500
C966        C  0.40301319  0.09675086  0.98632089    -0.25600
C967        C  0.41165652  0.12681181  0.99077646     0.37100
C968        C  0.39118594  0.14986288  0.98673868    -0.27200
F969        F  0.32457183  0.10681927  0.96649821    -0.19300
H970        H  0.36608594  0.06783523  0.97469160     0.16400
F971        F  0.43990047  0.13419472  0.99887722    -0.23000
H972        H  0.39847650  0.17271599  0.98976914     0.18200
C973        C  0.50451611  0.11020775  0.83905925    -0.27100
C974        C  0.50466380  0.14031755  0.84795523     0.06500
C975        C  0.50381449  0.14686194  0.87857974     0.26200
C976        C  0.50294928  0.12390703  0.89975177    -0.11500
C977        C  0.50264087  0.09364292  0.89113458    -0.25500
C978        C  0.50327632  0.08708770  0.86025613     0.37000
C979        C  0.50519870  0.16485926  0.82540200     0.06600
F980        F  0.50444620  0.17559264  0.88812507    -0.19300
H981        H  0.50259319  0.13002476  0.92310765     0.16400
F982        F  0.50244750  0.05847000  0.85035156    -0.23000
H983        H  0.50487383  0.10459360  0.81556185     0.18200
C984        C  0.52802448  0.16676422  0.80396318     0.26200
C985        C  0.52810753  0.18983583  0.78281505    -0.11500
C986        C  0.50534698  0.21141895  0.78227658    -0.25600
C987        C  0.48267938  0.20968701  0.80400911     0.37100
C988        C  0.48277290  0.18675947  0.82534055    -0.27200
F989        F  0.55059394  0.14663933  0.80383343    -0.19300
H990        H  0.54609245  0.19090574  0.76675508     0.16400
F991        F  0.45975837  0.22937142  0.80399184    -0.23000
H992        H  0.46487377  0.18571263  0.84152730     0.18200
C993        C  0.49365398  0.84192871  0.87820201    -0.27100
C994        C  0.49203028  0.85036994  0.84812124     0.06500
C995        C  0.49330326  0.88083719  0.84094510     0.26200
C996        C  0.49694549  0.90230725  0.86343057    -0.11500
C997        C  0.49845287  0.89405227  0.89377007    -0.25500
C998        C  0.49626954  0.86341668  0.90084006     0.37000
C999        C  0.48799631  0.82736606  0.82450759     0.06600
F1000       F  0.49112967  0.88983759  0.81213198    -0.19300
H1001       H  0.49807326  0.92555117  0.85698174     0.16400
F1002       F  0.49576029  0.85408507  0.92959961    -0.23000
H1003       H  0.49201649  0.81859087  0.88423395     0.18200
C1004       C  0.50891362  0.80430948  0.82063045     0.26200
C1005       C  0.50438829  0.78227033  0.79886847    -0.11500
C1006       C  0.47902784  0.78289236  0.78053751    -0.25600
C1007       C  0.45821108  0.80603604  0.78431536     0.37100
C1008       C  0.46273045  0.82805792  0.80603945    -0.27200
F1009       F  0.53398500  0.80345249  0.83752305    -0.19300
H1010       H  0.52079785  0.76480290  0.79610550     0.16400
F1011       F  0.43296745  0.80671851  0.76767767    -0.23000
H1012       H  0.44617506  0.84539778  0.80886950     0.18200
C1013       C  0.49578104  0.87964463  0.14738249    -0.27100
C1014       C  0.49457775  0.84947308  0.13877245     0.06500
C1015       C  0.49571181  0.84264592  0.10819289     0.26200
C1016       C  0.49794738  0.86541985  0.08684728    -0.11500
C1017       C  0.49863730  0.89576719  0.09523029    -0.25500
C1018       C  0.49772283  0.90254641  0.12603354     0.37000
C1019       C  0.49199008  0.82535414  0.16171210     0.06600
F1020       F  0.49507823  0.81383251  0.09889620    -0.19300
H1021       H  0.49882085  0.85912830  0.06354986     0.16400
F1022       F  0.49851885  0.93123191  0.13572978    -0.23000
H1023       H  0.49477667  0.88553154  0.17079406     0.18200
C1024       C  0.51244473  0.82341582  0.18543294     0.26200
C1025       C  0.50896081  0.80176094  0.20776288    -0.11500
C1026       C  0.48520591  0.78131647  0.20686281    -0.25600
C1027       C  0.46549197  0.78234816  0.18238347     0.37100
C1028       C  0.46880798  0.80422420  0.16021444    -0.27200
F1029       F  0.53618865  0.84214878  0.18669555    -0.19300
H1030       H  0.52498788  0.80082548  0.22575951     0.16400
F1031       F  0.44237554  0.76288325  0.18038506    -0.23000
H1032       H  0.45282443  0.80506965  0.14214212     0.18200
C1033       C  0.49807006  0.14795017  0.10915725    -0.27100
C1034       C  0.50817112  0.14006946  0.13774458     0.06500
C1035       C  0.51453740  0.10996835  0.14366439     0.26200
C1036       C  0.51124689  0.08839049  0.12131032    -0.11500
C1037       C  0.50168351  0.09621651  0.09242871    -0.25500
C1038       C  0.49484989  0.12638175  0.08669327     0.37000
C1039       C  0.51057530  0.16308990  0.16157042     0.06600
F1040       F  0.52322418  0.10124343  0.17129862    -0.19300
H1041       H  0.51655299  0.06544841  0.12664024     0.16400
F1042       F  0.48454476  0.13507995  0.05962716    -0.23000
H1043       H  0.49271502  0.17097033  0.10419522     0.18200
C1044       C  0.53685273  0.16663660  0.17845350     0.26200
C1045       C  0.53822331  0.18805391  0.20119593    -0.11500
C1046       C  0.51375881  0.20662009  0.20705555    -0.25600
C1047       C  0.48766494  0.20326361  0.19017176     0.37100
C1048       C  0.48611232  0.18168027  0.16767437    -0.27200
F1049       F  0.56146234  0.15012614  0.17234923    -0.19300
H1050       H  0.55860770  0.19071526  0.21386038     0.16400
F1051       F  0.46346801  0.22040719  0.19601637    -0.23000
H1052       H  0.46560039  0.17920894  0.15518230     0.18200
C1053       C  0.34418289  0.97899869  0.19339827    -0.27100
C1054       C  0.33986223  0.99634304  0.16762260     0.06500
C1055       C  0.31433942  0.01421680  0.16538003     0.26200
C1056       C  0.29267440  0.01333918  0.18756221    -0.11500
C1057       C  0.29579074  0.99437812  0.21221501    -0.25500
C1058       C  0.32211672  0.97777280  0.21553183     0.37000
C1059       C  0.36104207  0.99499637  0.14237370     0.06600
F1060       F  0.30985023  0.03172885  0.14112827    -0.19300
H1061       H  0.27243795  0.02616440  0.18458142     0.16400
F1062       F  0.32526035  0.95833736  0.23847972    -0.23000
H1063       H  0.36375879  0.96504696  0.19549309     0.18200
C1064       C  0.39132744  0.00117616  0.14666180     0.26200
C1065       C  0.41062338  0.00196839  0.12232807    -0.11500
C1066       C  0.40037654  0.99606585  0.09315335    -0.25600
C1067       C  0.37001444  0.98930457  0.08895329     0.37100
C1068       C  0.35061948  0.98879669  0.11341884    -0.27200
F1069       F  0.40216715  0.00727902  0.17425839    -0.19300
H1070       H  0.43379436  0.00733166  0.12651645     0.16400
F1071       F  0.35907757  0.98275452  0.06149819    -0.23000
H1072       H  0.32732217  0.98353303  0.10978818     0.18200
C1073       C  0.66569221  0.96948119  0.80190266    -0.27100
C1074       C  0.65989522  0.99565129  0.81816105     0.06500
C1075       C  0.67507966  0.02205804  0.81069566     0.26200
C1076       C  0.69719170  0.02166009  0.78875601    -0.11500
C1077       C  0.70417565  0.99508017  0.77385787    -0.25500
C1078       C  0.68778858  0.96913251  0.77993374     0.37000
C1079       C  0.63935217  0.99468387  0.84394119     0.06600
F1080       F  0.66924334  0.04791982  0.82532776    -0.19300
H1081       H  0.71011500  0.04166940  0.78460600     0.16400
F1082       F  0.69506642  0.94291221  0.76663378    -0.23000
H1083       H  0.65430989  0.94889239  0.80745007     0.18200
C1084       C  0.61014903  0.98417347  0.84045177     0.26200
C1085       C  0.59104183  0.98276519  0.86494447    -0.11500
C1086       C  0.60058669  0.99173341  0.89357502    -0.25600
C1087       C  0.63017901  0.00159256  0.89715440     0.37100
C1088       C  0.64927235  0.00320552  0.87245150    -0.27200
F1089       F  0.59986599  0.97596985  0.81317016    -0.19300
H1090       H  0.56850092  0.97487071  0.86130268     0.16400
F1091       F  0.64049729  0.01033053  0.92423007    -0.23000
H1092       H  0.67195040  0.01092762  0.87559107     0.18200
C1093       C  0.39520736  0.98488081  0.83674754    -0.27100
C1094       C  0.36569840  0.99380581  0.84086202     0.06500
C1095       C  0.35588922  0.00246587  0.86934796     0.26200
C1096       C  0.37550557  0.00202661  0.89354217    -0.11500
C1097       C  0.40518406  0.99284583  0.88965192    -0.25500
C1098       C  0.41477704  0.98405662  0.86090151     0.37000
C1099       C  0.34412084  0.99078535  0.81642115     0.06600
F1100       F  0.32720606  0.01111094  0.87368276    -0.19300
H1101       H  0.36750291  0.00899620  0.91524405     0.16400
F1102       F  0.44278397  0.97363590  0.85617990    -0.23000
H1103       H  0.40277371  0.97749715  0.81501665     0.18200
C1104       C  0.34430259  0.01007811  0.79173162     0.26200
C1105       C  0.32034453  0.00970986  0.77170946    -0.11500
C1106       C  0.29652796  0.98977927  0.77606653    -0.25600
C1107       C  0.29807403  0.96868117  0.79909552     0.37100
C1108       C  0.32161670  0.96935248  0.81918626    -0.27200
F1109       F  0.36642603  0.03047000  0.78818893    -0.19300
H1110       H  0.31945883  0.02621732  0.75412448     0.16400
F1111       F  0.27593969  0.94839231  0.80307521    -0.23000
H1112       H  0.32168490  0.95390628  0.83774983     0.18200
C1113       C  0.50133473  0.10235734  0.33865147    -0.27100
C1114       C  0.50767627  0.13243697  0.34388920     0.06500
C1115       C  0.50816092  0.14321738  0.37334085     0.26200
C1116       C  0.50453662  0.12366884  0.39730694    -0.11500
C1117       C  0.49991983  0.09311119  0.39227025    -0.25500
C1118       C  0.49718110  0.08283171  0.36248578     0.37000
C1119       C  0.51373498  0.15265241  0.31868568     0.06600
F1120       F  0.51209131  0.17273093  0.37887234    -0.19300
H1121       H  0.50597111  0.13240400  0.41978084     0.16400
F1122       F  0.49072813  0.05389392  0.35614015    -0.23000
H1123       H  0.50013685  0.09387797  0.31604704     0.18200
C1124       C  0.54027430  0.16926760  0.31783868     0.26200
C1125       C  0.54403492  0.19158291  0.29653524    -0.11500
C1126       C  0.52167676  0.19726451  0.27546249    -0.25600
C1127       C  0.49606187  0.17912225  0.27490794     0.37100
C1128       C  0.49224284  0.15683655  0.29637484    -0.27200
F1129       F  0.56208430  0.16454610  0.33826476    -0.19300
H1130       H  0.56384581  0.20541851  0.29731628     0.16400
F1131       F  0.47351670  0.18470846  0.25556983    -0.23000
H1132       H  0.47171915  0.14406921  0.29668999     0.18200
C1133       C  0.49663913  0.85034221  0.37314846    -0.27100
C1134       C  0.49756809  0.86095312  0.34369224     0.06500
C1135       C  0.49909842  0.89175034  0.33861661     0.26200
C1136       C  0.50044322  0.91147768  0.36268716    -0.11500
C1137       C  0.49963202  0.90095382  0.39237151    -0.25500
C1138       C  0.49737426  0.87007469  0.39729396     0.37000
C1139       C  0.49626054  0.83959854  0.31856820     0.06600
F1140       F  0.49964379  0.90272961  0.31041609    -0.19300
H1141       H  0.50192638  0.93511216  0.35790996     0.16400
F1142       F  0.49526963  0.85888582  0.42531202    -0.23000
H1143       H  0.49477323  0.82664063  0.37743585     0.18200
C1144       C  0.51658441  0.81585788  0.31702771     0.26200
C1145       C  0.51282209  0.79342710  0.29577069    -0.11500
C1146       C  0.48869312  0.79417530  0.27587902    -0.25600
C1147       C  0.46923285  0.81862003  0.27632884     0.37100
C1148       C  0.47318325  0.84135706  0.29743543    -0.27200
F1149       F  0.53925358  0.81368575  0.33696241    -0.19300
H1150       H  0.52767961  0.77439172  0.29603718     0.16400
F1151       F  0.44495279  0.81909060  0.25830994    -0.23000
H1152       H  0.45711428  0.85933357  0.29853465     0.18200
C1153       C  0.51351765  0.14654907  0.61449890    -0.27100
C1154       C  0.51034015  0.13649005  0.64402367     0.06500
C1155       C  0.50285398  0.10656058  0.64917338     0.26200
C1156       C  0.49896807  0.08704298  0.62533528    -0.11500
C1157       C  0.50277611  0.09670109  0.59571809    -0.25500
C1158       C  0.50974453  0.12693199  0.59048403     0.37000
C1159       C  0.51335126  0.15751787  0.66930112     0.06600
F1160       F  0.50002558  0.09592075  0.67735656    -0.19300
H1161       H  0.49339069  0.06406343  0.63027458     0.16400
F1162       F  0.51331656  0.13756056  0.56237649    -0.23000
H1163       H  0.51860180  0.16974138  0.61000041     0.18200
C1164       C  0.53739902  0.17760829  0.67086877     0.26200
C1165       C  0.53793307  0.19951768  0.69293526    -0.11500
C1166       C  0.51466415  0.20169725  0.71373186    -0.25600
C1167       C  0.49165793  0.18052715  0.71345209     0.37100
C1168       C  0.49102480  0.15864185  0.69131162    -0.27200
F1169       F  0.55979110  0.17677303  0.65050887    -0.19300
H1170       H  0.55561066  0.21602456  0.69270893     0.16400
F1171       F  0.46828461  0.18284276  0.73253523    -0.23000
H1172       H  0.47206320  0.14369747  0.69030111     0.18200
C1173       C  0.47390437  0.84986809  0.61450096    -0.27100
C1174       C  0.47988819  0.85798050  0.64419891     0.06500
C1175       C  0.49081913  0.88677962  0.65012777     0.26200
C1176       C  0.49532045  0.90700378  0.62682683    -0.11500
C1177       C  0.48919141  0.89900159  0.59705374    -0.25500
C1178       C  0.47831133  0.87008819  0.59117147     0.37000
C1179       C  0.47487449  0.83615425  0.66864458     0.06600
F1180       F  0.49650596  0.89565440  0.67851299    -0.19300
H1181       H  0.50361214  0.92906618  0.63220335     0.16400
F1182       F  0.47122876  0.86144175  0.56303514    -0.23000
H1183       H  0.46586903  0.82767217  0.60928892     0.18200
C1184       C  0.44828718  0.81951899  0.67004834     0.26200
C1185       C  0.44483817  0.79711182  0.69137521    -0.11500
C1186       C  0.46764229  0.79087355  0.71184066    -0.25600
C1187       C  0.49383657  0.80812497  0.71120874     0.37100
C1188       C  0.49731355  0.83063091  0.68983096    -0.27200
F1189       F  0.42579309  0.82455848  0.65046338    -0.19300
H1190       H  0.42461130  0.78387073  0.69131580     0.16400
F1191       F  0.51702275  0.80166469  0.72949950    -0.23000
H1192       H  0.51820035  0.84274109  0.68888716     0.18200
C1193       C  0.32928775  0.01889194  0.30479235    -0.27100
C1194       C  0.33395394  0.99585697  0.32557962     0.06500
C1195       C  0.31574960  0.97035553  0.32424693     0.26200
C1196       C  0.29318389  0.96806453  0.30289969    -0.11500
C1197       C  0.28839200  0.99092302  0.28212886    -0.25500
C1198       C  0.30657975  0.01653243  0.28325558     0.37000
C1199       C  0.35692660  0.99845255  0.34939870     0.06600
F1200       F  0.32027144  0.94729192  0.34327896    -0.19300
H1201       H  0.27967294  0.94804426  0.30212514     0.16400
F1202       F  0.30184715  0.03946211  0.26412330    -0.23000
H1203       H  0.34286497  0.03887696  0.30561922     0.18200
C1204       C  0.38739520  0.00111806  0.34258461     0.26200
C1205       C  0.40873812  0.00127691  0.36545008    -0.11500
C1206       C  0.40024662  0.99879576  0.39564585    -0.25600
C1207       C  0.36954642  0.99649375  0.40231620     0.37100
C1208       C  0.34832333  0.99633149  0.37942359    -0.27200
F1209       F  0.39664482  0.00234434  0.31379721    -0.19300
H1210       H  0.43204308  0.00300313  0.35937084     0.16400
F1211       F  0.35981617  0.99384972  0.43085454    -0.23000
H1212       H  0.32494974  0.99419831  0.38514417     0.18200
C1213       C  0.61890524  0.00561357  0.64594305    -0.27100
C1214       C  0.64785664  0.99670280  0.63780633     0.06500
C1215       C  0.65301407  0.98795654  0.60808300     0.26200
C1216       C  0.62968235  0.98777012  0.58732772    -0.11500
C1217       C  0.60062742  0.99652366  0.59545283    -0.25500
C1218       C  0.59558390  0.00567339  0.62512524     0.37000
C1219       C  0.67210090  0.99560078  0.66063493     0.06600
F1220       F  0.68075137  0.98013372  0.59884372    -0.19300
H1221       H  0.63447003  0.98069291  0.56473041     0.16400
F1222       F  0.56828270  0.01513280  0.63407649    -0.23000
H1223       H  0.61413682  0.01214114  0.66870053     0.18200
C1224       C  0.67624730  0.01907013  0.68120107     0.26200
C1225       C  0.69780940  0.01684893  0.70364513    -0.11500
C1226       C  0.71597133  0.99151459  0.70586754    -0.25600
C1227       C  0.71229429  0.96825681  0.68518565     0.37100
C1228       C  0.69052044  0.97027994  0.66287623    -0.27200
F1229       F  0.65976939  0.04436865  0.67941108    -0.19300
H1230       H  0.70067600  0.03511867  0.71920099     0.16400
F1231       F  0.72901973  0.94315800  0.68725915    -0.23000
H1232       H  0.68750821  0.95161509  0.64782667     0.18200
C1233       C  0.38553287  0.98923379  0.64829606    -0.27100
C1234       C  0.35596735  0.99665024  0.64119146     0.06500
C1235       C  0.34892432  0.00377886  0.61147622     0.26200
C1236       C  0.37109614  0.00404423  0.58955946    -0.11500
C1237       C  0.40072969  0.99672461  0.59658410    -0.25500
C1238       C  0.40765777  0.98893940  0.62628063     0.37000
C1239       C  0.33252564  0.99692460  0.66465983     0.06600
F1240       F  0.32037373  0.00963390  0.60340041    -0.19300
H1241       H  0.36495033  0.00989836  0.56696615     0.16400
F1242       F  0.43561051  0.98036188  0.63405377    -0.23000
H1243       H  0.39157202  0.98371301  0.67100403     0.18200
C1244       C  0.32923900  0.97295382  0.68468287     0.26200
C1245       C  0.30659741  0.97336271  0.70616171    -0.11500
C1246       C  0.28686061  0.99755007  0.70806380    -0.25600
C1247       C  0.29025302  0.02157616  0.68829441     0.37100
C1248       C  0.31293254  0.02127699  0.66691568    -0.27200
F1249       F  0.34735614  0.94878684  0.68299196    -0.19300
H1250       H  0.30423486  0.95466964  0.72124765     0.16400
F1251       F  0.27217784  0.04572860  0.69026939    -0.23000
H1252       H  0.31538863  0.04029415  0.65224457     0.18200
C1253       C  0.60603572  0.00027356  0.15271853    -0.27100
C1254       C  0.63668105  0.99899397  0.14691763     0.06500
C1255       C  0.64653897  0.99812097  0.11714278     0.26200
C1256       C  0.62608819  0.99856571  0.09364823    -0.11500
C1257       C  0.59527967  0.99940269  0.09921401    -0.25500
C1258       C  0.58544865  0.00019184  0.12926418     0.37000
C1259       C  0.65845320  0.99741138  0.17172423     0.06600
F1260       F  0.67608906  0.99693541  0.11073648    -0.19300
H1261       H  0.63449023  0.99785155  0.07102415     0.16400
F1262       F  0.55599642  0.00038060  0.13626957    -0.23000
H1263       H  0.59800109  0.00055347  0.17550275     0.18200
C1264       C  0.65966803  0.01947829  0.19411565     0.26200
C1265       C  0.68280354  0.01921547  0.21517029    -0.11500
C1266       C  0.70478275  0.99699741  0.21401392    -0.25600
C1267       C  0.70257665  0.97420410  0.19272356     0.37100
C1268       C  0.67950577  0.97431145  0.17194559    -0.27200
F1269       F  0.63980334  0.04229443  0.19436403    -0.19300
H1270       H  0.68462058  0.03729325  0.23112672     0.16400
F1271       F  0.72364628  0.95255266  0.19123207    -0.23000
H1272       H  0.67865922  0.95684470  0.15525614     0.18200
C1273       C  0.67245402  0.97090351  0.30610534    -0.27100
C1274       C  0.66778045  0.99434983  0.32653344     0.06500
C1275       C  0.68627414  0.01976399  0.32473433     0.26200
C1276       C  0.70866631  0.02165268  0.30317081    -0.11500
C1277       C  0.71319807  0.99843047  0.28282988    -0.25500
C1278       C  0.69513010  0.97282316  0.28453988     0.37000
C1279       C  0.64451183  0.99228841  0.35033791     0.06600
F1280       F  0.68240651  0.04315128  0.34356281    -0.19300
H1281       H  0.72242295  0.04149147  0.30207682     0.16400
F1282       F  0.70028268  0.94930200  0.26616965    -0.23000
H1283       H  0.65908844  0.95080730  0.30735195     0.18200
C1284       C  0.61484753  0.98405895  0.34400275     0.26200
C1285       C  0.59302129  0.98490669  0.36649465    -0.11500
C1286       C  0.60025493  0.99359216  0.39586461    -0.25600
C1287       C  0.63016221  0.00095163  0.40221555     0.37100
C1288       C  0.65184690  0.00007659  0.37980044    -0.27200
F1289       F  0.60668006  0.97609661  0.31595254    -0.19300
H1290       H  0.57034939  0.97878052  0.36084523     0.16400
F1291       F  0.63853686  0.00985333  0.42990291    -0.23000
H1292       H  0.67459041  0.00586501  0.38550668     0.18200
C1293       C  0.34520097  0.88624868  0.48148472    -0.27100
C1294       C  0.35208357  0.85590625  0.47916638     0.06500
C1295       C  0.38198006  0.84681723  0.48121766     0.26200
C1296       C  0.40457582  0.86789077  0.48579191    -0.11500
C1297       C  0.39784563  0.89846849  0.48816950    -0.25500
C1298       C  0.36769198  0.90739587  0.48574924     0.37000
C1299       C  0.32792651  0.83378733  0.47530065     0.06600
F1300       F  0.38924818  0.81747725  0.47947427    -0.19300
H1301       H  0.42738373  0.86018554  0.48740061     0.16400
F1302       F  0.35967923  0.93654829  0.48714079    -0.23000
H1303       H  0.32227643  0.89361502  0.47971100     0.18200
C1304       C  0.30481725  0.83161731  0.49638805     0.26200
C1305       C  0.28358979  0.80890532  0.49409143    -0.11500
C1306       C  0.28478684  0.78844697  0.47045607    -0.25600
C1307       C  0.30688167  0.79166620  0.44843718     0.37100
C1308       C  0.32837999  0.81409345  0.45097604    -0.27200
F1309       F  0.30371975  0.85046371  0.52006357    -0.19300
H1310       H  0.26715802  0.80641945  0.51161237     0.16400
F1311       F  0.30801258  0.77268211  0.42484608    -0.23000
H1312       H  0.34568025  0.81584830  0.43420572     0.18200
C1313       C  0.69576965  0.83747723  0.48572884    -0.27100
C1314       C  0.67384617  0.83690412  0.50814959     0.06500
C1315       C  0.67454070  0.81436480  0.52976055     0.26200
C1316       C  0.69567198  0.79172186  0.52789126    -0.11500
C1317       C  0.71652268  0.79121885  0.50457158    -0.25500
C1318       C  0.71700573  0.81466044  0.48382285     0.37000
C1319       C  0.64882527  0.85821010  0.50748850     0.06600
F1320       F  0.65413078  0.81375487  0.55210648    -0.19300
H1321       H  0.69493325  0.77370321  0.54395611     0.16400
F1322       F  0.73624836  0.81421246  0.46046146    -0.23000
H1323       H  0.69537003  0.85466632  0.46877800     0.18200
C1324       C  0.65399947  0.88897460  0.50876786     0.26200
C1325       C  0.63018470  0.90881120  0.50661440    -0.11500
C1326       C  0.60065111  0.89838953  0.50323543    -0.25600
C1327       C  0.59549113  0.86739779  0.50305577     0.37100
C1328       C  0.61944996  0.84758560  0.50502793    -0.27200
F1329       F  0.68202054  0.89980900  0.51258429    -0.19300
H1330       H  0.63504724  0.93246276  0.50758689     0.16400
F1331       F  0.56749859  0.85612038  0.50065743    -0.23000
H1332       H  0.61512998  0.82381621  0.50416811     0.18200
C1333       C  0.62159811  0.14170044  0.51564668    -0.27100
C1334       C  0.65056627  0.13241987  0.50848759     0.06500
C1335       C  0.65553792  0.10325413  0.49862623     0.26200
C1336       C  0.63156077  0.08371703  0.49535009    -0.11500
C1337       C  0.60225192  0.09297031  0.50198535    -0.25500
C1338       C  0.59753565  0.12215773  0.51251942     0.37000
C1339       C  0.67490910  0.15425587  0.50836869     0.06600
F1340       F  0.68340367  0.09406245  0.49120827    -0.19300
H1341       H  0.63596749  0.06138664  0.48722932     0.16400
F1342       F  0.56986672  0.13175928  0.52007768    -0.23000
H1343       H  0.61763608  0.16429689  0.52325796     0.18200
C1344       C  0.67531945  0.17638087  0.48637412     0.26200
C1345       C  0.69705930  0.19851221  0.48705312    -0.11500
C1346       C  0.71845549  0.19904981  0.50984712    -0.25600
C1347       C  0.71847593  0.17655928  0.53158028     0.37100
C1348       C  0.69690052  0.15397460  0.53060835    -0.27200
F1349       F  0.65400916  0.17708236  0.46488633    -0.19300
H1350       H  0.69634721  0.21617719  0.47059705     0.16400
F1351       F  0.73761918  0.17790912  0.55496425    -0.23000
H1352       H  0.69645120  0.13713152  0.54789806     0.18200
C1353       C  0.32175538  0.16869790  0.53902867    -0.27100
C1354       C  0.32334315  0.15365957  0.51156825     0.06500
C1355       C  0.30122447  0.15913243  0.48997377     0.26200
C1356       C  0.27940376  0.18086414  0.49504844    -0.11500
C1357       C  0.27949697  0.19760114  0.52148992    -0.25500
C1358       C  0.30026150  0.19070237  0.54387398     0.37000
C1359       C  0.34903213  0.13373273  0.50519293     0.06600
F1360       F  0.30213079  0.14532895  0.46304386    -0.19300
H1361       H  0.26393537  0.18627578  0.47733133     0.16400
F1362       F  0.30073299  0.20636069  0.56979831    -0.23000
H1363       H  0.33801490  0.16426421  0.55630806     0.18200
C1364       C  0.37845736  0.14328624  0.51077737     0.26200
C1365       C  0.40250047  0.12387053  0.50648725    -0.11500
C1366       C  0.39774193  0.09464923  0.49623575    -0.25600
C1367       C  0.36837368  0.08575028  0.48894611     0.37100
C1368       C  0.34437264  0.10503210  0.49365912    -0.27200
F1369       F  0.38398225  0.17152537  0.52024629    -0.19300
H1370       H  0.42476111  0.13150768  0.51193193     0.16400
F1371       F  0.36266839  0.05828605  0.47744732    -0.23000
H1372       H  0.32200918  0.09725110  0.48886815     0.18200
C1373       C  0.88432649  0.99348933  0.64460328    -0.27100
C1374       C  0.85524848  0.98836740  0.63409433     0.06500
C1375       C  0.85019983  0.98551897  0.60348107     0.26200
C1376       C  0.87394435  0.98711264  0.58365298    -0.11500
C1377       C  0.90327815  0.99183527  0.59387218    -0.25500
C1378       C  0.90825431  0.99541542  0.62468399     0.37000
C1379       C  0.83033113  0.98514280  0.65517635     0.06600
F1380       F  0.82239646  0.98016308  0.59280696    -0.19300
H1381       H  0.86920337  0.98419421  0.56015712     0.16400
F1382       F  0.93595438  0.00096181  0.63558764    -0.23000
H1383       H  0.88842116  0.99604876  0.66827477     0.18200
C1384       C  0.83135390  0.96308002  0.67720737     0.26200
C1385       C  0.80889377  0.96140489  0.69851709    -0.11500
C1386       C  0.78538639  0.98207076  0.69868005    -0.25600
C1387       C  0.78332158  0.00303161  0.67543271     0.37100
C1388       C  0.80566441  0.00433761  0.65368394    -0.27200
F1389       F  0.85452199  0.94368176  0.67858762    -0.19300
H1390       H  0.81077462  0.94493171  0.71606969     0.16400
F1391       F  0.76139306  0.02380958  0.67500431    -0.23000
H1392       H  0.80454241  0.02133279  0.63656951     0.18200
C1393       C  0.17794770  0.02922392  0.67159990    -0.27100
C1394       C  0.17802076  0.00545362  0.65134653     0.06500
C1395       C  0.19986859  0.98313719  0.65359300     0.26200
C1396       C  0.22019539  0.98371661  0.67723036    -0.11500
C1397       C  0.21871591  0.00650090  0.69864733    -0.25500
C1398       C  0.19807758  0.02974251  0.69517127     0.37000
C1399       C  0.15341666  0.00274048  0.62994022     0.06600
F1400       F  0.20001599  0.95972013  0.63436484    -0.19300
H1401       H  0.23566431  0.96539073  0.67995167     0.16400
F1402       F  0.19648866  0.05219505  0.71544086    -0.23000
H1403       H  0.16136652  0.04668735  0.66987187     0.18200
C1404       C  0.12401722  0.99975765  0.64027614     0.26200
C1405       C  0.10050416  0.99728476  0.62011829    -0.11500
C1406       C  0.10590273  0.99810355  0.58929883    -0.25600
C1407       C  0.13558503  0.00162359  0.57906405     0.37100
C1408       C  0.15906381  0.00357687  0.59932988    -0.27200
F1409       F  0.11814480  0.99887434  0.66995311    -0.19300
H1410       H  0.07807480  0.99479578  0.62871404     0.16400
F1411       F  0.14212333  0.00365216  0.54956269    -0.23000
H1412       H  0.18164581  0.00626002  0.59116250     0.18200
C1413       C  0.19442898  0.00989185  0.32898373    -0.27100
C1414       C  0.17744671  0.98504475  0.33747536     0.06500
C1415       C  0.18336532  0.95704354  0.32483262     0.26200
C1416       C  0.20492461  0.95434897  0.30257094    -0.11500
C1417       C  0.22090431  0.97948798  0.29297222    -0.25500
C1418       C  0.21597335  0.00720676  0.30667430     0.37000
C1419       C  0.15216413  0.98883267  0.35788270     0.06600
F1420       F  0.16754117  0.93264023  0.33333280    -0.19300
H1421       H  0.20815731  0.93297279  0.29175660     0.16400
F1422       F  0.22983206  0.03211662  0.29646230    -0.23000
H1423       H  0.18979111  0.03164759  0.33844015     0.18200
C1424       C  0.15692080  0.99730436  0.38751282     0.26200
C1425       C  0.13277065  0.00012619  0.40680599    -0.11500
C1426       C  0.10345382  0.99450456  0.39683209    -0.25600
C1427       C  0.09877646  0.98667914  0.36685251     0.37100
C1428       C  0.12304900  0.98384219  0.34757907    -0.27200
F1429       F  0.18496720  0.00185890  0.39797164    -0.19300
H1430       H  0.13717666  0.00627607  0.42975376     0.16400
F1431       F  0.07101012  0.98070602  0.35640642    -0.23000
H1432       H  0.11920236  0.97747099  0.32459314     0.18200
C1433       C  0.80326627  0.98248839  0.33580958    -0.27100
C1434       C  0.82417210  0.00556529  0.33932887     0.06500
C1435       C  0.82167259  0.03143554  0.32192878     0.26200
C1436       C  0.80019904  0.03297031  0.29952995    -0.11500
C1437       C  0.78094189  0.00883862  0.29426895    -0.25500
C1438       C  0.78170637  0.98404635  0.31335960     0.37000
C1439       C  0.84984776  0.00155526  0.35941103     0.06600
F1440       F  0.84084037  0.05460114  0.32573156    -0.19300
H1441       H  0.79976815  0.05227784  0.28502713     0.16400
F1442       F  0.76372379  0.96017139  0.30849386    -0.23000
H1443       H  0.80488558  0.96244791  0.34917853     0.18200
C1444       C  0.84548826  0.99597048  0.38978033     0.26200
C1445       C  0.86993770  0.99283929  0.40864025    -0.11500
C1446       C  0.89931343  0.99490570  0.39759150    -0.25600
C1447       C  0.90358635  0.99887938  0.36671014     0.37100
C1448       C  0.87897480  0.00254218  0.34792880    -0.27200
F1449       F  0.81757284  0.99442485  0.40136890    -0.19300
H1450       H  0.86568544  0.98923032  0.43212894     0.16400
F1451       F  0.93132585  0.99953629  0.35460994    -0.23000
H1452       H  0.88260322  0.00600725  0.32429912     0.18200
C1453       C  0.11889711  0.84328270  0.49063102    -0.27100
C1454       C  0.14862301  0.85224324  0.48656738     0.06500
C1455       C  0.15499626  0.88271484  0.48301919     0.26200
C1456       C  0.13204753  0.90379178  0.48404500    -0.11500
C1457       C  0.10217477  0.89497071  0.48836158    -0.25500
C1458       C  0.09585211  0.86428508  0.49142974     0.37000
C1459       C  0.17271923  0.82959994  0.48582919     0.06600
F1460       F  0.18351162  0.89218258  0.47928442    -0.19300
H1461       H  0.13779799  0.92712409  0.48150460     0.16400
F1462       F  0.06753112  0.85443142  0.49561452    -0.23000
H1463       H  0.11350537  0.81984668  0.49305352     0.18200
C1464       C  0.17636783  0.80932992  0.50946223     0.26200
C1465       C  0.19794270  0.78682437  0.50772671    -0.11500
C1466       C  0.21624306  0.78418052  0.48244795    -0.25600
C1467       C  0.21314983  0.80501347  0.45921649     0.37100
C1468       C  0.19160431  0.82750218  0.46095117    -0.27200
F1469       F  0.15916478  0.81147666  0.53428035    -0.19300
H1470       H  0.20034256  0.77132685  0.52605631     0.16400
F1471       F  0.23008587  0.80278886  0.43425106    -0.23000
H1472       H  0.18905171  0.84278357  0.44244024     0.18200
C1473       C  0.84811777  0.88086403  0.50767280    -0.27100
C1474       C  0.85481882  0.85072340  0.50223348     0.06500
C1475       C  0.88471297  0.84286624  0.49675021     0.26200
C1476       C  0.90706179  0.86470773  0.49567480    -0.11500
C1477       C  0.90036198  0.89503423  0.50014457    -0.25500
C1478       C  0.87049920  0.90278683  0.50674989     0.37000
C1479       C  0.83065437  0.82773327  0.50084878     0.06600
F1480       F  0.89243603  0.81389547  0.49261450    -0.19300
H1481       H  0.92969377  0.85776875  0.49098341     0.16400
F1482       F  0.86270214  0.93152535  0.51225761    -0.23000
H1483       H  0.82533446  0.88761855  0.51191461     0.18200
C1484       C  0.80840766  0.82563651  0.52298727     0.26200
C1485       C  0.78612188  0.80368522  0.52105431    -0.11500
C1486       C  0.78573780  0.78317814  0.49732853    -0.25600
C1487       C  0.80785940  0.78534071  0.47521183     0.37100
C1488       C  0.82981932  0.80747794  0.47688440    -0.27200
F1489       F  0.80879786  0.84402134  0.54704621    -0.19300
H1490       H  0.76950321  0.80220102  0.53850128     0.16400
F1491       F  0.80789472  0.76646316  0.45155970    -0.23000
H1492       H  0.84617578  0.80892147  0.45917580     0.18200
C1493       C  0.84910120  0.10880195  0.50018740    -0.27100
C1494       C  0.85703299  0.13896974  0.50339566     0.06500
C1495       C  0.88753182  0.14645335  0.50393529     0.26200
C1496       C  0.90940579  0.12420872  0.50157593    -0.11500
C1497       C  0.90155336  0.09386912  0.49875750    -0.25500
C1498       C  0.87090249  0.08651216  0.49789399     0.37000
C1499       C  0.83340530  0.16229344  0.50649356     0.06600
F1500       F  0.89625977  0.17537130  0.50620862    -0.19300
H1501       H  0.93261671  0.13085996  0.50212717     0.16400
F1502       F  0.86173519  0.05778842  0.49497100    -0.23000
H1503       H  0.82581972  0.10236554  0.49992658     0.18200
C1504       C  0.80930431  0.16368498  0.48638874     0.26200
C1505       C  0.78702471  0.18538514  0.48974062    -0.11500
C1506       C  0.78826786  0.20624413  0.51309673    -0.25600
C1507       C  0.81219020  0.20470845  0.53337798     0.37100
C1508       C  0.83448344  0.18303748  0.53002564    -0.27200
F1509       F  0.80777839  0.14463135  0.46290600    -0.19300
H1510       H  0.76909833  0.18637027  0.47363062     0.16400
F1511       F  0.81369947  0.22382405  0.55681074    -0.23000
H1512       H  0.85243999  0.18218480  0.54613521     0.18200
C1513       C  0.11541092  0.14619791  0.49562601    -0.27100
C1514       C  0.14560340  0.13870785  0.49806173     0.06500
C1515       C  0.15401730  0.10857799  0.49692746     0.26200
C1516       C  0.13231721  0.08620566  0.49475603    -0.11500
C1517       C  0.10180309  0.09353562  0.49361256    -0.25500
C1518       C  0.09368387  0.12397151  0.49330030     0.37000
C1519       C  0.16814058  0.16236888  0.50258848     0.06600
F1520       F  0.18326553  0.10088560  0.49780070    -0.19300
H1521       H  0.13945110  0.06313870  0.49443958     0.16400
F1522       F  0.06473964  0.13247299  0.49109766    -0.23000
H1523       H  0.10858557  0.16936346  0.49618179     0.18200
C1524       C  0.17156671  0.18546380  0.48173783     0.26200
C1525       C  0.19322065  0.20746834  0.48611256    -0.11500
C1526       C  0.21141282  0.20714188  0.51155976    -0.25600
C1527       C  0.20754287  0.18435125  0.53276318     0.37100
C1528       C  0.18618128  0.16205983  0.52815456    -0.27200
F1529       F  0.15445724  0.18632115  0.45681047    -0.19300
H1530       H  0.19609677  0.22462625  0.46940278     0.16400
F1531       F  0.22390379  0.18404862  0.55820206    -0.23000
H1532       H  0.18341615  0.14470584  0.54472440     0.18200
C1533       C  0.00135854  0.59958966  0.15314848    -0.27100
C1534       C  0.99996330  0.63036222  0.14785051     0.06500
C1535       C  0.99740485  0.64038592  0.11810901     0.26200
C1536       C  0.99610168  0.61997275  0.09451010    -0.11500
C1537       C  0.99794409  0.58917601  0.09979243    -0.25500
C1538       C  0.00074527  0.57921774  0.12960352     0.37000
C1539       C  0.00336876  0.65164606  0.17319271     0.06600
F1540       F  0.99763980  0.66991319  0.11150574    -0.19300
H1541       H  0.99427718  0.62841725  0.07197382     0.16400
F1542       F  0.00365275  0.54983254  0.13630247    -0.23000
H1543       H  0.00334988  0.59119502  0.17569298     0.18200
C1544       C  0.98599455  0.67767396  0.17498994     0.26200
C1545       C  0.99270038  0.69953542  0.19608777    -0.11500
C1546       C  0.01627675  0.69573107  0.21627756    -0.25600
C1547       C  0.03153927  0.66845590  0.21682610     0.37100
C1548       C  0.02523658  0.64667070  0.19525612    -0.27200
F1549       F  0.96299568  0.68243728  0.15594012    -0.19300
H1550       H  0.98037142  0.72030029  0.19571149     0.16400
F1551       F  0.05391733  0.66375110  0.23660867    -0.23000
H1552       H  0.03866941  0.62662969  0.19481034     0.18200
C1553       C  0.05427501  0.82104852  0.31578402    -0.27100
C1554       C  0.02831282  0.82153698  0.33319485     0.06500
C1555       C  0.00738869  0.79828493  0.33019027     0.26200
C1556       C  0.01146717  0.77607845  0.30864403    -0.11500
C1557       C  0.03682754  0.77633954  0.29036568    -0.25500
C1558       C  0.05875955  0.79834972  0.29487548     0.37000
C1559       C  0.02298050  0.84632672  0.35436075     0.06600
F1560       F  0.98232588  0.79786312  0.34714887    -0.19300
H1561       H  0.99413252  0.75957427  0.30528405     0.16400
F1562       F  0.08427309  0.79811239  0.27857135    -0.23000
H1563       H  0.07099800  0.83832173  0.31834352     0.18200
C1564       C  0.01829903  0.84034102  0.38462934     0.26200
C1565       C  0.01197841  0.86350123  0.40444295    -0.11500
C1566       C  0.01061971  0.89338771  0.39469439    -0.25600
C1567       C  0.01585881  0.89939142  0.36424678     0.37100
C1568       C  0.02197418  0.87600172  0.34434755    -0.27200
F1569       F  0.02059929  0.81205688  0.39516132    -0.19300
H1570       H  0.00862384  0.85788015  0.42767414     0.16400
F1571       F  0.01547558  0.92774137  0.35366926    -0.23000
H1572       H  0.02568782  0.88101191  0.32101397     0.18200
C1573       C  0.00161968  0.38355109  0.83892546    -0.27100
C1574       C  0.01629228  0.35641246  0.84388485     0.06500
C1575       C  0.02618753  0.34958972  0.87285876     0.26200
C1576       C  0.02133633  0.36958536  0.89636324    -0.11500
C1577       C  0.00693698  0.39696025  0.89140646    -0.25500
C1578       C  0.99699746  0.40368166  0.86231126     0.37000
C1579       C  0.02037829  0.33489781  0.81906017     0.06600
F1580       F  0.04012119  0.32334757  0.87855823    -0.19300
H1581       H  0.02941610  0.36387558  0.91837830     0.16400
F1582       F  0.98248686  0.42955697  0.85639738    -0.23000
H1583       H  0.99387561  0.38926568  0.81678447     0.18200
C1584       C  0.99586562  0.32548511  0.80182558     0.26200
C1585       C  0.99936227  0.30311400  0.78036713    -0.11500
C1586       C  0.02716654  0.28960367  0.77608117    -0.25600
C1587       C  0.05188432  0.29965233  0.79242047     0.37100
C1588       C  0.04855517  0.32239764  0.81350415    -0.27200
F1589       F  0.96816057  0.33636994  0.80720375    -0.19300
H1590       H  0.97996888  0.29495488  0.76847187     0.16400
F1591       F  0.07894289  0.28662730  0.78875215    -0.23000
H1592       H  0.06779397  0.32960122  0.82621338     0.18200
C1593       C  0.00702127  0.11457738  0.64365683    -0.27100
C1594       C  0.00546420  0.14381723  0.63242599     0.06500
C1595       C  0.00490739  0.14833292  0.60160519     0.26200
C1596       C  0.00545506  0.12401784  0.58232808    -0.11500
C1597       C  0.00663385  0.09452279  0.59324523    -0.25500
C1598       C  0.00772324  0.09004122  0.62431990     0.37000
C1599       C  0.00535443  0.16945102  0.65306287     0.06600
F1600       F  0.00313501  0.17626545  0.59010113    -0.19300
H1601       H  0.00462629  0.12853206  0.55863508     0.16400
F1602       F  0.00946160  0.06222129  0.63610828    -0.23000
H1603       H  0.00799508  0.11080149  0.66749236     0.18200
C1604       C  0.98451948  0.17076834  0.67635237     0.26200
C1605       C  0.98788780  0.19181141  0.69897805    -0.11500
C1606       C  0.01169365  0.21209726  0.69836895    -0.25600
C1607       C  0.03075001  0.21284712  0.67355610     0.37100
C1608       C  0.02760848  0.19147560  0.65102131    -0.27200
F1609       F  0.96168686  0.15091120  0.67781118    -0.19300
H1610       H  0.97283552  0.19128144  0.71787126     0.16400
F1611       F  0.05389828  0.23234716  0.67243323    -0.23000
H1612       H  0.04368309  0.19093574  0.63299698     0.18200
C1613       C  0.00866311  0.65290842  0.79757108    -0.27100
C1614       C  0.98724415  0.65386822  0.82052003     0.06500
C1615       C  0.96595364  0.67688592  0.82043188     0.26200
C1616       C  0.96751786  0.69946437  0.79917436    -0.11500
C1617       C  0.99021853  0.69961102  0.77769300    -0.25500
C1618       C  0.01019195  0.67559363  0.77626829     0.37000
C1619       C  0.98895059  0.63250997  0.84573617     0.06600
F1620       F  0.94442196  0.67836644  0.84165279    -0.19300
H1621       H  0.95198636  0.71790602  0.80055147     0.16400
F1622       F  0.03302242  0.67557124  0.75641003    -0.23000
H1623       H  0.02562740  0.63576055  0.79733344     0.18200
C1624       C  0.99424791  0.60207076  0.84067493     0.26200
C1625       C  0.99740848  0.58258817  0.86463919    -0.11500
C1626       C  0.99507291  0.59275330  0.89432978    -0.25600
C1627       C  0.98958737  0.62323734  0.89940379     0.37100
C1628       C  0.98679913  0.64283947  0.87532205    -0.27200
F1629       F  0.99591606  0.59093973  0.81255574    -0.19300
H1630       H  0.00149316  0.55929493  0.85971320     0.16400
F1631       F  0.98682736  0.63423202  0.92747302    -0.23000
H1632       H  0.98346497  0.66631660  0.87990241     0.18200
C1633       C  0.99258947  0.79520045  0.65330781    -0.27100
C1634       C  0.01336147  0.81868805  0.65364751     0.06500
C1635       C  0.03507223  0.81960254  0.67615839     0.26200
C1636       C  0.03452912  0.79870847  0.69910218    -0.11500
C1637       C  0.01245602  0.77649188  0.70003812    -0.25500
C1638       C  0.99199880  0.77424015  0.67637703     0.37000
C1639       C  0.01089285  0.84342291  0.63202183     0.06600
F1640       F  0.05620884  0.84131196  0.67649459    -0.19300
H1641       H  0.05052899  0.80078918  0.71708107     0.16400
F1642       F  0.96968960  0.75381873  0.67684655    -0.23000
H1643       H  0.97558303  0.79420204  0.63619996     0.18200
C1644       C  0.00899546  0.83780083  0.60133571     0.26200
C1645       C  0.00674879  0.86145892  0.58128301    -0.11500
C1646       C  0.00630804  0.89127331  0.59134898    -0.25600
C1647       C  0.00780869  0.89678453  0.62227026     0.37100
C1648       C  0.00997354  0.87303079  0.64227983    -0.27200
F1649       F  0.01008818  0.80947220  0.59066921    -0.19300
H1650       H  0.00563692  0.85627532  0.55772378     0.16400
F1651       F  0.00732613  0.92497390  0.63334741    -0.23000
H1652       H  0.01080392  0.87777336  0.66595742     0.18200
C1653       C  0.10467745  0.65400993  0.49674640    -0.27100
C1654       C  0.13543655  0.64935923  0.49831454     0.06500
C1655       C  0.14631446  0.61993142  0.50000278     0.26200
C1656       C  0.12662043  0.59566924  0.50046827    -0.11500
C1657       C  0.09567520  0.60020089  0.49913366    -0.25500
C1658       C  0.08495239  0.62989318  0.49712337     0.37000
C1659       C  0.15627582  0.67504438  0.49799935     0.06600
F1660       F  0.17609613  0.61460331  0.50047300    -0.19300
H1661       H  0.13566238  0.57332842  0.50177726     0.16400
F1662       F  0.05536643  0.63596042  0.49530182    -0.23000
H1663       H  0.09584419  0.67645290  0.49548235     0.18200
C1664       C  0.15528911  0.69667980  0.47521185     0.26200
C1665       C  0.17840876  0.71752823  0.47238104    -0.11500
C1666       C  0.20273721  0.71664838  0.49192631    -0.25600
C1667       C  0.20237940  0.69680920  0.51609489     0.37100
C1668       C  0.17910567  0.67647544  0.51930014    -0.27200
F1669       F  0.13365575  0.69586752  0.45408024    -0.19300
H1670       H  0.17867733  0.73245072  0.45339902     0.16400
F1671       F  0.22586679  0.69542432  0.53512516    -0.23000
H1672       H  0.17988157  0.66053490  0.53741476     0.18200
C1673       C  0.89218160  0.33907428  0.49126945    -0.27100
C1674       C  0.86238459  0.34422827  0.49889415     0.06500
C1675       C  0.85240583  0.37387994  0.50208086     0.26200
C1676       C  0.87241520  0.39769576  0.49952852    -0.11500
C1677       C  0.90273445  0.39249630  0.49366899    -0.25500
C1678       C  0.91219393  0.36281754  0.48860025     0.37000
C1679       C  0.84242119  0.31883341  0.50604298     0.06600
F1680       F  0.82337838  0.37981478  0.50830927    -0.19300
H1681       H  0.86429313  0.42014625  0.50316719     0.16400
F1682       F  0.94098454  0.35641356  0.48187212    -0.23000
H1683       H  0.90037185  0.31650121  0.48871640     0.18200
C1684       C  0.83936309  0.29392633  0.48699991     0.26200
C1685       C  0.81771661  0.27216768  0.49305333    -0.11500
C1686       C  0.79931913  0.27497157  0.51820195    -0.25600
C1687       C  0.80456756  0.29807232  0.53863231     0.37100
C1688       C  0.82586958  0.31977175  0.53255810    -0.27200
F1689       F  0.85569008  0.29166631  0.46161340    -0.19300
H1690       H  0.81381076  0.25452692  0.47698765     0.16400
F1691       F  0.78762496  0.30067150  0.56359390    -0.23000
H1692       H  0.82878557  0.33795340  0.54822016     0.18200
C1693       C  0.14751621  0.37279140  0.49855473    -0.27100
C1694       C  0.13582736  0.34367328  0.49790334     0.06500
C1695       C  0.10491316  0.33961780  0.49724307     0.26200
C1696       C  0.08605311  0.36430587  0.49660825    -0.11500
C1697       C  0.09748895  0.39370425  0.49745145    -0.25500
C1698       C  0.12860903  0.39765286  0.49869709     0.37000
C1699       C  0.15622859  0.31782475  0.49863499     0.06600
F1700       F  0.09292693  0.31179445  0.49693949    -0.19300
H1701       H  0.06227933  0.36016623  0.49574726     0.16400
F1702       F  0.14083337  0.42530236  0.50055781    -0.23000
H1703       H  0.17140693  0.37621486  0.49954769     0.18200
C1704       C  0.17739719  0.31390098  0.47593106     0.26200
C1705       C  0.20041347  0.29323096  0.47946956    -0.11500
C1706       C  0.20198948  0.27555898  0.50522802    -0.25600
C1707       C  0.17911132  0.27731748  0.52650737     0.37100
C1708       C  0.15645621  0.29856411  0.52332657    -0.27200
F1709       F  0.17632418  0.33085391  0.45089250    -0.19300
H1710       H  0.21775175  0.29186292  0.46270406     0.16400
F1711       F  0.18008011  0.26025617  0.55145800    -0.23000
H1712       H  0.14007488  0.30111742  0.54089422     0.18200
C1713       C  0.82245973  0.67362163  0.46643580    -0.27100
C1714       C  0.83849067  0.66887732  0.49280156     0.06500
C1715       C  0.83438368  0.68836655  0.51711074     0.26200
C1716       C  0.81306046  0.71106772  0.51555338    -0.11500
C1717       C  0.79580112  0.71450684  0.48976082    -0.25500
C1718       C  0.80133536  0.69634242  0.46487357     0.37000
C1719       C  0.85966619  0.64378031  0.49467201     0.06600
F1720       F  0.84957035  0.68417887  0.54294451    -0.19300
H1721       H  0.80851975  0.72449184  0.53513554     0.16400
F1722       F  0.78504948  0.69966116  0.43959903    -0.23000
H1723       H  0.82587858  0.65928948  0.44727715     0.18200
C1724       C  0.85058267  0.61422262  0.48910230     0.26200
C1725       C  0.87119392  0.59087031  0.49089301    -0.11500
C1726       C  0.90123337  0.59666258  0.49779787    -0.25600
C1727       C  0.91011539  0.62649052  0.50311646     0.37100
C1728       C  0.88945182  0.64959148  0.50169602    -0.27200
F1729       F  0.82177351  0.60790570  0.48225471    -0.19300
H1730       H  0.86369792  0.56831972  0.48646011     0.16400
F1731       F  0.93877421  0.63364368  0.50973929    -0.23000
H1732       H  0.89684501  0.67226930  0.50568890     0.18200
C1733       C  0.14605272  0.49380985  0.37410130    -0.27100
C1734       C  0.13443258  0.49305803  0.34502765     0.06500
C1735       C  0.10358315  0.49155135  0.34088015     0.26200
C1736       C  0.08461476  0.49174127  0.36552368    -0.11500
C1737       C  0.09600629  0.49326534  0.39489301    -0.25500
C1738       C  0.12711131  0.49376412  0.39888660     0.37000
C1739       C  0.15493601  0.49298909  0.31935207     0.06600
F1740       F  0.09185312  0.48918860  0.31306764    -0.19300
H1741       H  0.06085202  0.49067125  0.36140899     0.16400
F1742       F  0.13932231  0.49419517  0.42655055    -0.23000
H1743       H  0.16994280  0.49456573  0.37756138     0.18200
C1744       C  0.15555159  0.51678257  0.29888648     0.26200
C1745       C  0.17832394  0.51844299  0.27755600    -0.11500
C1746       C  0.20071783  0.49667224  0.27691183    -0.25600
C1747       C  0.19885883  0.47200564  0.29607161     0.37100
C1748       C  0.17605174  0.47016273  0.31702763    -0.27200
F1749       F  0.13587548  0.53963930  0.30129400    -0.19300
H1750       H  0.17988575  0.53787282  0.26329660     0.16400
F1751       F  0.22041877  0.45078992  0.29591655    -0.23000
H1752       H  0.17573206  0.45165837  0.33254193     0.18200
C1753       C  0.83533076  0.47358847  0.30560363    -0.27100
C1754       C  0.83994511  0.49945780  0.32265409     0.06500
C1755       C  0.82414407  0.52552357  0.31568886     0.26200
C1756       C  0.80226025  0.52495478  0.29351754    -0.11500
C1757       C  0.79657706  0.49868127  0.27745349    -0.25500
C1758       C  0.81395083  0.47325853  0.28286095     0.37000
C1759       C  0.86106792  0.49909251  0.34784305     0.06600
F1760       F  0.82908739  0.55111846  0.33112258    -0.19300
H1761       H  0.78877757  0.54462576  0.28976078     0.16400
F1762       F  0.80872321  0.44759266  0.26763611    -0.23000
H1763       H  0.84771967  0.45346225  0.31049586     0.18200
C1764       C  0.85175003  0.49089722  0.37661719     0.26200
C1765       C  0.87218818  0.49048994  0.40026244    -0.11500
C1766       C  0.90222691  0.49825975  0.39555909    -0.25600
C1767       C  0.91120315  0.50684975  0.36652869     0.37100
C1768       C  0.89076102  0.50715902  0.34305839    -0.27200
F1769       F  0.82291267  0.48328775  0.38180120    -0.19300
H1770       H  0.86454742  0.48381168  0.42217187     0.16400
F1771       F  0.93965382  0.51538872  0.36065482    -0.23000
H1772       H  0.89811432  0.51376211  0.32101407     0.18200
C1773       C  0.11025056  0.49424472  0.65368962    -0.27100
C1774       C  0.14032120  0.49944375  0.64720881     0.06500
C1775       C  0.14933647  0.50219682  0.61732351     0.26200
C1776       C  0.12836835  0.50044948  0.59432046    -0.11500
C1777       C  0.09802089  0.49568585  0.60063224    -0.25500
C1778       C  0.08927266  0.49208059  0.63075762     0.37000
C1779       C  0.16230837  0.50188512  0.67160686     0.06600
F1780       F  0.17834826  0.50743408  0.61044312    -0.19300
H1781       H  0.13590995  0.50328822  0.57156123     0.16400
F1782       F  0.06052341  0.48628883  0.63828707    -0.23000
H1783       H  0.10305570  0.49160672  0.67660299     0.18200
C1784       C  0.15979723  0.52425879  0.69352226     0.26200
C1785       C  0.18216911  0.52781827  0.71500588    -0.11500
C1786       C  0.20743160  0.50950716  0.71440000    -0.25600
C1787       C  0.20939950  0.48652697  0.69314083     0.37100
C1788       C  0.18688309  0.48264533  0.67208465    -0.27200
F1789       F  0.13693832  0.54403143  0.69271504    -0.19300
H1790       H  0.18078870  0.54611641  0.73074321     0.16400
F1791       F  0.23383285  0.46871118  0.69193322    -0.23000
H1792       H  0.18908078  0.46522451  0.65546681     0.18200
C1793       C  0.85302709  0.47379625  0.61916772    -0.27100
C1794       C  0.86263666  0.47836924  0.64868271     0.06500
C1795       C  0.89237731  0.48662978  0.65384387     0.26200
C1796       C  0.91184890  0.49063515  0.62989542    -0.11500
C1797       C  0.90226375  0.48633092  0.60024127    -0.25500
C1798       C  0.87254251  0.47762925  0.59515878     0.37000
C1799       C  0.84121007  0.47454912  0.67358119     0.06600
F1800       F  0.90289334  0.49010679  0.68201519    -0.19300
H1801       H  0.93462850  0.49704827  0.63472984     0.16400
F1802       F  0.86233924  0.47232255  0.56716534    -0.23000
H1803       H  0.83016232  0.46744311  0.61464428     0.18200
C1804       C  0.83738640  0.49681220  0.69548155     0.26200
C1805       C  0.81414581  0.49462882  0.71616039    -0.11500
C1806       C  0.79416008  0.47060753  0.71497441    -0.25600
C1807       C  0.79875866  0.44775092  0.69397787     0.37100
C1808       C  0.82231109  0.44957465  0.67379397    -0.27200
F1809       F  0.85438471  0.52187411  0.69537446    -0.19300
H1810       H  0.81042142  0.51284432  0.73160042     0.16400
F1811       F  0.77952635  0.42441092  0.69193918    -0.23000
H1812       H  0.82498817  0.43204834  0.65736050     0.18200
C1813       C  0.01068092  0.65000755  0.38535358    -0.27100
C1814       C  0.01287676  0.64171543  0.35522961     0.06500
C1815       C  0.01179675  0.61123952  0.34785957     0.26200
C1816       C  0.00860986  0.58961261  0.37015207    -0.11500
C1817       C  0.00633167  0.59768590  0.40044401    -0.25500
C1818       C  0.00723742  0.62840046  0.40774495     0.37000
C1819       C  0.01647528  0.66480736  0.33161326     0.06600
F1820       F  0.01458683  0.60226384  0.31907815    -0.19300
H1821       H  0.00814151  0.56637639  0.36354903     0.16400
F1822       F  0.00475126  0.63778190  0.43642200    -0.23000
H1823       H  0.01131004  0.67337246  0.39152771     0.18200
C1824       C  0.99685501  0.66598159  0.30718687     0.26200
C1825       C  0.00093269  0.68712427  0.28458349    -0.11500
C1826       C  0.02486273  0.70735777  0.28552636    -0.25600
C1827       C  0.04416728  0.70659454  0.31038533     0.37100
C1828       C  0.03981706  0.68567031  0.33320917    -0.27200
F1829       F  0.97331947  0.64701422  0.30547037    -0.19300
H1830       H  0.98512911  0.68780480  0.26640383     0.16400
F1831       F  0.06781977  0.72540679  0.31226476    -0.23000
H1832       H  0.05518659  0.68524367  0.35182730     0.18200
C1833       C  0.00003552  0.34143990  0.61175780    -0.27100
C1834       C  0.00539140  0.34916590  0.64162500     0.06500
C1835       C  0.00853722  0.37948033  0.64909527     0.26200
C1836       C  0.00731609  0.40144486  0.62698161    -0.11500
C1837       C  0.00261142  0.39382805  0.59687306    -0.25500
C1838       C  0.99848732  0.36340374  0.58960057     0.37000
C1839       C  0.00896112  0.32558503  0.66466149     0.06600
F1840       F  0.01241385  0.38792095  0.67791485    -0.19300
H1841       H  0.01018790  0.42452327  0.63355135     0.16400
F1842       F  0.99279701  0.35468336  0.56117246    -0.23000
H1843       H  0.99756094  0.31823417  0.60545409     0.18200
C1844       C  0.98778705  0.30260464  0.66807132     0.26200
C1845       C  0.99186031  0.28048371  0.68974012    -0.11500
C1846       C  0.01717244  0.28071055  0.70815624    -0.25600
C1847       C  0.03849831  0.30340319  0.70445039     0.37100
C1848       C  0.03430578  0.32565918  0.68305827    -0.27200
F1849       F  0.96290321  0.30186356  0.65088543    -0.19300
H1850       H  0.97512753  0.26325761  0.69234759     0.16400
F1851       F  0.06395250  0.30338596  0.72076840    -0.23000
H1852       H  0.05126275  0.34267769  0.68038516     0.18200
C1853       C  0.98871454  0.61076746  0.65080898    -0.27100
C1854       C  0.99164031  0.64068099  0.64216465     0.06500
C1855       C  0.99390422  0.64762490  0.61177912     0.26200
C1856       C  0.99423775  0.62486396  0.59044802    -0.11500
C1857       C  0.99259492  0.59462330  0.59895283    -0.25500
C1858       C  0.98923241  0.58786674  0.62952357     0.37000
C1859       C  0.99382453  0.66438030  0.66502695     0.06600
F1860       F  0.99591316  0.67645272  0.60275375    -0.19300
H1861       H  0.99636270  0.63104432  0.56721004     0.16400
F1862       F  0.98679303  0.55924031  0.63904497    -0.23000
H1863       H  0.98680002  0.60511669  0.67421077     0.18200
C1864       C  0.96943253  0.67125760  0.68341630     0.26200
C1865       C  0.97220473  0.69302734  0.70563891    -0.11500
C1866       C  0.99919822  0.70839911  0.70963293    -0.25600
C1867       C  0.02364317  0.70141712  0.69134463     0.37100
C1868       C  0.02089212  0.67962458  0.66912535    -0.27200
F1869       F  0.94286731  0.65726122  0.67952523    -0.19300
H1870       H  0.95318239  0.69832527  0.71952743     0.16400
F1871       F  0.05037121  0.71492262  0.69574414    -0.23000
H1872       H  0.04002792  0.67422308  0.65540891     0.18200
C1873       C  0.98297270  0.34537018  0.11478229    -0.27100
C1874       C  0.98435578  0.35592333  0.14427193     0.06500
C1875       C  0.99154847  0.38582326  0.14952198     0.26200
C1876       C  0.99693592  0.40503039  0.12567169    -0.11500
C1877       C  0.99535613  0.39487374  0.09588677    -0.25500
C1878       C  0.98855216  0.36458921  0.09071325     0.37000
C1879       C  0.97840434  0.33582669  0.16968261     0.06600
F1880       F  0.99250110  0.39662610  0.17780145    -0.19300
H1881       H  0.00194679  0.42812976  0.13070757     0.16400
F1882       F  0.98657249  0.35366162  0.06255096    -0.23000
H1883       H  0.97753138  0.32221737  0.11044485     0.18200
C1884       C  0.94977162  0.32411462  0.17448575     0.26200
C1885       C  0.94486038  0.30372129  0.19758667    -0.11500
C1886       C  0.96831398  0.29514178  0.21646356    -0.25600
C1887       C  0.99654311  0.30824673  0.21267810     0.37100
C1888       C  0.00149646  0.32843058  0.18941778    -0.27200
F1889       F  0.92677937  0.33203124  0.15650506    -0.19300
H1890       H  0.92307696  0.29351739  0.19991665     0.16400
F1891       F  0.01993641  0.29954065  0.22973783    -0.23000
H1892       H  0.02366373  0.33745169  0.18606743     0.18200
C1893       C  0.99677245  0.15202491  0.38845001    -0.27100
C1894       C  0.99866020  0.14714110  0.35765151     0.06500
C1895       C  0.00183068  0.11757213  0.34725131     0.26200
C1896       C  0.00255664  0.09359815  0.36734983    -0.11500
C1897       C  0.00016122  0.09846472  0.39823783    -0.25500
C1898       C  0.99730742  0.12822083  0.40850122     0.37000
C1899       C  0.99626373  0.17281078  0.33662686     0.06600
F1900       F  0.00331345  0.11166477  0.31760062    -0.19300
H1901       H  0.00481791  0.07117365  0.35864223     0.16400
F1902       F  0.99464012  0.13466098  0.43796738    -0.23000
H1903       H  0.99484164  0.17448929  0.39714339     0.18200
C1904       C  0.97361208  0.19444650  0.33992625     0.26200
C1905       C  0.96939092  0.21638420  0.31811800    -0.11500
C1906       C  0.98749726  0.21702220  0.29272269    -0.25600
C1907       C  0.01154386  0.19709014  0.29053054     0.37100
C1908       C  0.01591096  0.17525573  0.31233482    -0.27200
F1909       F  0.95405200  0.19305226  0.36296727    -0.19300
H1910       H  0.95059294  0.23141918  0.31995377     0.16400
F1911       F  0.02992884  0.19788198  0.26648076    -0.23000
H1912       H  0.03413382  0.15964831  0.30974315     0.18200
C1913       C  0.00083393  0.34444854  0.38249161    -0.27100
C1914       C  0.99136810  0.35225723  0.35370038     0.06500
C1915       C  0.98494919  0.38234117  0.34757382     0.26200
C1916       C  0.98796786  0.40404876  0.36975808    -0.11500
C1917       C  0.99701869  0.39631125  0.39872768    -0.25500
C1918       C  0.00347466  0.36609727  0.40488424     0.37000
C1919       C  0.98742428  0.32898931  0.33034866     0.06600
F1920       F  0.97592342  0.39085963  0.31999989    -0.19300
H1921       H  0.98265541  0.42695543  0.36428403     0.16400
F1922       F  0.01221216  0.35728488  0.43248572    -0.23000
H1923       H  0.00555085  0.32138179  0.38785300     0.18200
C1924       C  0.01015340  0.30831530  0.32386879     0.26200
C1925       C  0.00618622  0.28699510  0.30132155    -0.11500
C1926       C  0.97950133  0.28575185  0.28504968    -0.25600
C1927       C  0.95656232  0.30593739  0.29196718     0.37100
C1928       C  0.96055759  0.32734964  0.31432643    -0.27200
F1929       F  0.03636313  0.30903654  0.33895771    -0.19300
H1930       H  0.02399157  0.27148025  0.29638418     0.16400
F1931       F  0.92987616  0.30418721  0.27784264    -0.23000
H1932       H  0.94241903  0.34242801  0.31947948     0.18200
loop_ 
_geom_bond_atom_site_label_1 
_geom_bond_atom_site_label_2 
_geom_bond_distance 
_geom_bond_site_symmetry_2 
_ccdc_geom_bond_type 
N1            C5   1.360       .  A
N1            C2   1.357       .  A
N1         C1926   1.442       .  S
C2            C3   1.380       .  A
C2         C1906   1.476       .  S
C3            C4   1.372       .  A
C3            H6   1.082       .  S
C4            C5   1.382       .  A
C4            H7   1.082       .  S
C5         C1886   1.477       .  S
O8           C19   1.288       .  A
O8          Eu44   2.441   1_655  S
O9           C20   1.291       .  A
O9          Eu43   2.465   1_455  S
O10          C21   1.287       .  A
O10         Eu16   2.432       .  S
O11          C22   1.285       .  A
O11         Eu16   2.413   1_455  S
O12          C22   1.299       .  A
O12         Eu46   2.499       .  S
O13          C21   1.298       .  A
O13         Eu45   2.493       .  S
O14          C20   1.294       .  A
O14         Eu16   2.477   1_455  S
O15          C19   1.293       .  A
O15         Eu16   2.470       .  S
Eu16         O26   2.349   1_655  S
Eu16         O18   2.344       .  S
Eu16         O17   2.348   1_655  S
Eu16         O24   2.343       .  S
O17         Eu46   2.360       .  S
O17         Eu43   2.346   1_455  S
O18         Eu44   2.346   1_655  S
O18         Eu45   2.352       .  S
C19        C1917   1.487       .  S
C20        C1817   1.500       .  S
C21        C1766   1.490       .  S
C22        C1737   1.487       .  S
H23          O24   0.965       .  S
O24         Eu45   2.364       .  S
O24         Eu43   2.346       .  S
H25          O26   0.964       .  S
O26         Eu44   2.345       .  S
O26         Eu46   2.362       .  S
O27          C50   1.290       .  A
O27         Eu43   2.451       .  S
O28          C51   1.290       .  A
O28         Eu44   2.460       .  S
O29          C52   1.296       .  A
O29         Eu45   2.481       .  S
O30          C53   1.299       .  A
O30         Eu46   2.501       .  S
O31          C54   1.297       .  A
O31         Eu46   2.491       .  S
O32          C55   1.296       .  A
O32         Eu45   2.480       .  S
O33          C56   1.288       .  A
O33         Eu47   2.431       .  S
O34          C57   1.288       .  A
O34         Eu47   2.439   1_455  S
O35          C56   1.297       .  A
O35         Eu45   2.487       .  S
O36          C57   1.297       .  A
O36         Eu46   2.486       .  S
O37          C52   1.287       .  A
O37         Eu43   2.429       .  S
O38          C55   1.287       .  A
O38         Eu44   2.438   1_655  S
O39          C54   1.286       .  A
O39         Eu44   2.421       .  S
O40          C53   1.285       .  A
O40         Eu43   2.424   1_455  S
O41          C50   1.292       .  A
O41         Eu47   2.469       .  S
O42          C51   1.293       .  A
O42         Eu47   2.470   1_455  S
Eu43         O61   2.351   1_655  S
Eu43         O49   2.348       .  S
Eu44         O48   2.347       .  S
Eu44         O59   2.336   1_455  S
Eu45         O59   2.367       .  S
Eu45         O49   2.363       .  S
Eu46         O48   2.365       .  S
Eu46         O61   2.369       .  S
Eu47         O48   2.347   1_655  S
Eu47         O59   2.352       .  S
Eu47         O61   2.354   1_655  S
Eu47         O49   2.352       .  S
C50        C1857   1.492       .  S
C51        C1837   1.494       .  S
C52        C1726   1.485       .  S
C53        C1657   1.492       .  S
C54        C1697   1.489       .  S
C55        C1677   1.488       .  S
C56        C1797   1.486       .  S
C57        C1777   1.489       .  S
H58          O59   0.965       .  S
H60          O61   0.965       .  S
N62          C66   1.358       .  A
N62          C63   1.356   1_455  A
N62        C1866   1.440   1_455  S
C63          C64   1.381       .  A
C63        C1617   1.472       .  S
C64          C65   1.369   1_655  A
C64          H67   1.082       .  S
C65          C66   1.384       .  A
C65          H68   1.082       .  S
C66        C1637   1.477       .  S
N69          C73   1.357       .  A
N69          C70   1.355       .  A
N69        C1846   1.443       .  S
C70          C71   1.381       .  A
C70        C1606   1.470       .  S
C71          C72   1.372       .  A
C71          H74   1.082       .  S
C72          C73   1.381       .  A
C72          H75   1.082       .  S
C73        C1586   1.471       .  S
N76          C80   1.363       .  A
N76          C77   1.364       .  A
N76        C1826   1.451       .  S
C77          C78   1.381       .  A
C77        C1546   1.478       .  S
C78          C79   1.366       .  A
C78          H81   1.083       .  S
C79          C80   1.382       .  A
C79          H82   1.082       .  S
C80        C1557   1.478       .  S
O83          C94   1.299       .  A
O83        Eu119   2.501   1_545  S
O84          C95   1.294       .  A
O84        Eu118   2.476   1_545  S
O85          C96   1.294       .  A
O85         Eu91   2.475   1_655  S
O86          C97   1.290       .  A
O86         Eu91   2.455       .  S
O87          C97   1.290       .  A
O87        Eu121   2.455   1_545  S
O88          C96   1.292       .  A
O88        Eu120   2.468   1_545  S
O89          C95   1.287       .  A
O89         Eu91   2.427       .  S
O90          C94   1.287       .  A
O90         Eu91   2.431       .  S
Eu91        O101   2.346       .  S
Eu91         O93   2.343   1_455  S
Eu91         O92   2.345       .  S
Eu91         O99   2.342   1_455  S
O92        Eu121   2.337   1_545  S
O92        Eu118   2.349   1_545  S
O93        Eu119   2.359   1_645  S
O93        Eu120   2.342   1_545  S
C94        C1897   1.495       .  S
C95        C1597   1.485       .  S
C96        C1497   1.500       .  S
C97        C1517   1.488       .  S
H98          O99   0.966       .  S
O99        Eu120   2.348   1_545  S
O99        Eu118   2.362   1_645  S
H100        O101   0.966       .  S
O101       Eu119   2.353   1_545  S
O101       Eu121   2.345   1_545  S
O102        C125   1.293       .  A
O102       Eu118   2.469       .  S
O103        C126   1.296       .  A
O103       Eu119   2.487       .  S
O104        C127   1.287       .  A
O104       Eu120   2.428       .  S
O105        C128   1.283       .  A
O105       Eu121   2.413       .  S
O106        C129   1.282       .  A
O106       Eu121   2.399       .  S
O107        C130   1.289       .  A
O107       Eu120   2.437       .  S
O108        C131   1.296       .  A
O108       Eu122   2.485   1_655  S
O109        C132   1.292       .  A
O109       Eu122   2.466       .  S
O110        C131   1.290       .  A
O110       Eu120   2.456       .  S
O111        C132   1.290       .  A
O111       Eu121   2.450       .  S
O112        C127   1.292       .  A
O112       Eu118   2.460   1_655  S
O113        C130   1.293       .  A
O113       Eu119   2.468   1_655  S
O114        C129   1.295       .  A
O114       Eu119   2.479       .  S
O115        C128   1.293       .  A
O115       Eu118   2.468       .  S
O116        C125   1.290       .  A
O116       Eu122   2.443       .  S
O117        C126   1.290       .  A
O117       Eu122   2.441       .  S
Eu118       O136   2.358       .  S
Eu118       O124   2.360   1_455  S
Eu119       O123   2.351       .  S
Eu119       O134   2.372   1_455  S
Eu120       O134   2.355       .  S
Eu120       O124   2.345       .  S
Eu121       O123   2.340       .  S
Eu121       O136   2.345       .  S
Eu122       O123   2.348       .  S
Eu122       O134   2.353   1_455  S
Eu122       O136   2.360       .  S
Eu122       O124   2.343   1_455  S
C125       C1646   1.486       .  S
C126       C1566   1.492       .  S
C127       C1377   1.479       .  S
C128       C1406   1.480       .  S
C129       C1426   1.475       .  S
C130       C1446   1.484       .  S
C131       C1477   1.498       .  S
C132       C1457   1.490       .  S
H133        O134   0.966       .  S
H135        O136   0.966       .  S
N137        C141   1.359       .  A
N137        C138   1.357       .  A
N137       C1526   1.441       .  S
C138        C139   1.380       .  A
C138       C1706   1.476       .  S
C139        C140   1.374       .  A
C139        H142   1.082       .  S
C140        C141   1.383       .  A
C140        H143   1.082       .  S
C141       C1357   1.478       .  S
N144        C148   1.360       .  A
N144        C145   1.358       .  A
N144       C1506   1.449       .  S
C145        C146   1.382       .  A
C145       C1686   1.471       .  S
C146        C147   1.364       .  A
C146        H149   1.082       .  S
C147        C148   1.380       .  A
C147        H150   1.083       .  S
C148       C1346   1.467       .  S
N151        C155   1.359       .  A
N151        C152   1.360       .  A
N151       C1486   1.447       .  S
C152        C153   1.382       .  A
C152       C1317   1.473       .  S
C153        C154   1.367       .  A
C153        H156   1.082       .  S
C154        C155   1.380       .  A
C154        H157   1.083       .  S
C155       C1717   1.469       .  S
N158        C162   1.359       .  A
N158        C159   1.356       .  A
N158       C1466   1.445       .  S
C159        C160   1.380       .  A
C159       C1666   1.470       .  S
C160        C161   1.369       .  A
C160        H163   1.082       .  S
C161        C162   1.383       .  A
C161        H164   1.082       .  S
C162       C1306   1.475       .  S
N165        C169   1.356       .  A
N165        C166   1.357       .  A
N165       C1277   1.441   1_545  S
C166        C167   1.382       .  A
C166       C1437   1.472       .  S
C167        C168   1.371       .  A
C167        H170   1.083       .  S
C168        C169   1.382       .  A
C168        H171   1.082       .  S
C169       C1266   1.472   1_545  S
O172        C183   1.297       .  A
O172       Eu208   2.488       .  S
O173        C184   1.295       .  A
O173       Eu207   2.476       .  S
O174        C185   1.292       .  A
O174       Eu180   2.464       .  S
O175        C186   1.294       .  A
O175       Eu180   2.471       .  S
O176        C186   1.289       .  A
O176       Eu210   2.447       .  S
O177        C185   1.293       .  A
O177       Eu209   2.469       .  S
O178        C184   1.289       .  A
O178       Eu180   2.447       .  S
O179        C183   1.287       .  A
O179       Eu180   2.430   1_545  S
Eu180       O190   2.352   1_565  S
Eu180       O182   2.353   1_565  S
Eu180       O181   2.343       .  S
Eu180       O188   2.347       .  S
O181       Eu210   2.354       .  S
O181       Eu207   2.359       .  S
O182       Eu208   2.350       .  S
O182       Eu209   2.344   1_545  S
C183       C1366   1.486       .  S
C184       C1297   1.490       .  S
C185       C1206   1.496       .  S
C186       C1237   1.487       .  S
H187        O188   0.965       .  S
O188       Eu209   2.344       .  S
O188       Eu207   2.352       .  S
H189        O190   0.965       .  S
O190       Eu208   2.366       .  S
O190       Eu210   2.354   1_545  S
O191        C214   1.295       .  A
O191       Eu207   2.479       .  S
O192        C215   1.295       .  A
O192       Eu208   2.479       .  S
O193        C216   1.283       .  A
O193       Eu209   2.403       .  S
O194        C217   1.290       .  A
O194       Eu210   2.449       .  S
O195        C218   1.290       .  A
O195       Eu210   2.447   1_545  S
O196        C219   1.282       .  A
O196       Eu209   2.407   1_545  S
O197        C220   1.293       .  A
O197       Eu211   2.473       .  S
O198        C221   1.292       .  A
O198       Eu211   2.462       .  S
O199        C220   1.292       .  A
O199       Eu209   2.470       .  S
O200        C221   1.294       .  A
O200       Eu210   2.479       .  S
O201        C216   1.298       .  A
O201       Eu207   2.494       .  S
O202        C219   1.297       .  A
O202       Eu208   2.489       .  S
O203        C218   1.292       .  A
O203       Eu208   2.462       .  S
O204        C217   1.295       .  A
O204       Eu207   2.476       .  S
O205        C214   1.287       .  A
O205       Eu211   2.427       .  S
O206        C215   1.286       .  A
O206       Eu211   2.418   1_545  S
Eu207       O225   2.363       .  S
Eu207       O213   2.356       .  S
Eu208       O212   2.362       .  S
Eu208       O223   2.361       .  S
Eu209       O223   2.344   1_565  S
Eu209       O213   2.349       .  S
Eu210       O212   2.343   1_565  S
Eu210       O225   2.346       .  S
Eu211       O212   2.346   1_565  S
Eu211       O223   2.356   1_565  S
Eu211       O225   2.349       .  S
Eu211       O213   2.343       .  S
C214       C1326   1.485       .  S
C215       C1337   1.478       .  S
C216       C1137   1.484       .  S
C217       C1177   1.488       .  S
C218       C1157   1.484       .  S
C219       C1117   1.484       .  S
C220       C1286   1.497       .  S
C221       C1217   1.495       .  S
H222        O223   0.965       .  S
H224        O225   0.965       .  S
N226        C230   1.356   1_565  A
N226        C227   1.355       .  A
N226       C1246   1.441       .  S
C227        C228   1.383       .  A
C227       C1106   1.472       .  S
C228        C229   1.370   1_565  A
C228        H231   1.082       .  S
C229        C230   1.381       .  A
C229        H232   1.082       .  S
C230       C1397   1.470       .  S
N233        C237   1.356       .  A
N233        C234   1.359       .  A
N233       C1226   1.442       .  S
C234        C235   1.385       .  A
C234       C1386   1.477       .  S
C235        C236   1.368       .  A
C235        H238   1.082       .  S
C236        C237   1.378       .  A
C236        H239   1.082       .  S
C237       C1077   1.466       .  S
N240        C244   1.358       .  A
N240        C241   1.358       .  A
N240       C1197   1.445       .  S
C241        C242   1.383       .  A
C241       C1057   1.473       .  S
C242        C243   1.368       .  A
C242        H245   1.082       .  S
C243        C244   1.379       .  A
C243        H246   1.082       .  S
C244       C1417   1.467       .  S
O247        C258   1.299       .  A
O247       Eu283   2.494   1_554  S
O248        C259   1.295       .  A
O248       Eu282   2.479   1_554  S
O249        C260   1.291       .  A
O249       Eu255   2.459   1_545  S
O250        C261   1.294       .  A
O250       Eu255   2.482       .  S
O251        C261   1.294       .  A
O251       Eu285   2.477   1_554  S
O252        C260   1.294       .  A
O252       Eu284   2.479   1_554  S
O253        C259   1.287       .  A
O253       Eu255   2.427       .  S
O254        C258   1.287       .  A
O254       Eu255   2.432       .  S
Eu255       O265   2.342       .  S
Eu255       O257   2.348   1_565  S
Eu255       O256   2.345       .  S
Eu255       O263   2.355   1_565  S
O256       Eu285   2.350   1_554  S
O256       Eu282   2.362   1_554  S
O257       Eu283   2.355   1_544  S
O257       Eu284   2.347   1_554  S
C258       C1257   1.492       .  S
C259       C1066   1.485       .  S
C260       C1037   1.494       .  S
C261       C1017   1.505       .  S
H262        O263   0.966       .  S
O263       Eu284   2.349   1_554  S
O263       Eu282   2.358   1_544  S
H264        O265   0.965       .  S
O265       Eu283   2.361   1_554  S
O265       Eu285   2.352   1_554  S
O266        C289   1.295       .  A
O266       Eu282   2.475       .  S
O267        C290   1.298       .  A
O267       Eu283   2.495       .  S
O268        C291   1.283       .  A
O268       Eu284   2.411       .  S
O269        C292   1.288       .  A
O269       Eu285   2.434       .  S
O270        C293   1.286   1_556  A
O270       Eu285   2.424       .  S
O271        C294   1.282       .  A
O271       Eu284   2.404       .  S
O272        C295   1.293       .  A
O272       Eu286   2.475   1_545  S
O273        C296   1.291       .  A
O273       Eu286   2.460       .  S
O274        C295   1.295       .  A
O274       Eu284   2.481       .  S
O275        C296   1.296       .  A
O275       Eu285   2.488       .  S
O276        C291   1.296       .  A
O276       Eu282   2.485   1_545  S
O277        C294   1.301       .  A
O277       Eu283   2.510   1_545  S
O278        C293   1.300       .  A
O278       Eu283   2.505   1_554  S
O279        C292   1.295       .  A
O279       Eu282   2.476       .  S
O280        C289   1.287       .  A
O280       Eu286   2.436       .  S
O281        C290   1.287       .  A
O281       Eu286   2.426       .  S
Eu282       O300   2.363       .  S
Eu282       O288   2.359   1_565  S
Eu283       O287   2.371       .  S
Eu283       O298   2.368   1_565  S
Eu284       O298   2.352       .  S
Eu284       O288   2.343       .  S
Eu285       O287   2.353       .  S
Eu285       O300   2.349       .  S
Eu286       O287   2.356       .  S
Eu286       O298   2.355   1_565  S
Eu286       O300   2.351       .  S
Eu286       O288   2.347   1_565  S
C289       C1097   1.482       .  S
C290       C1086   1.487       .  S
C291        C966   1.483       .  S
C292        C917   1.484       .  S
C293        C937   1.491       .  S
C294        C897   1.485       .  S
C295        C977   1.504       .  S
C296        C997   1.500       .  S
H297        O298   0.966       .  S
H299        O300   0.966       .  S
N301        C305   1.355       .  A
N301        C302   1.356       .  A
N301       C1046   1.439       .  S
C302        C303   1.383       .  A
C302       C1126   1.474       .  S
C303        C304   1.371       .  A
C303        H306   1.082       .  S
C304        C305   1.382       .  A
C304        H307   1.082       .  S
C305        C886   1.473       .  S
N308        C312   1.361       .  A
N308        C309   1.362       .  A
N308       C1026   1.452       .  S
C309        C310   1.383       .  A
C309        C857   1.476       .  S
C310        C311   1.367       .  A
C310        H313   1.083       .  S
C311        C312   1.380       .  A
C311        H314   1.083       .  S
C312       C1146   1.472       .  S
N315        C319   1.361       .  A
N315        C316   1.358       .  A
N315       C1006   1.445       .  S
C316        C317   1.380       .  A
C316        C837   1.473       .  S
C317        C318   1.371       .  A
C317        H320   1.082       .  S
C318        C319   1.383       .  A
C318        H321   1.082       .  S
C319       C1186   1.481       .  S
N322        C326   1.362       .  A
N322        C323   1.361       .  A
N322        C986   1.454       .  S
C323        C324   1.380       .  A
C323       C1166   1.467       .  S
C324        C325   1.362       .  A
C324        H327   1.082       .  S
C325        C326   1.381       .  A
C325        H328   1.083       .  S
C326        C826   1.467       .  S
O329        C340   1.298       .  A
O329       Eu365   2.497   1_654  S
O330        C341   1.298       .  A
O330       Eu364   2.494   1_554  S
O331        C342   1.293       .  A
O331       Eu337   2.474   1_455  S
O332        C343   1.292       .  A
O332       Eu337   2.465       .  S
O333        C343   1.293       .  A
O333       Eu367   2.471   1_554  S
O334        C342   1.292       .  A
O334       Eu366   2.469   1_554  S
O335        C341   1.285       .  A
O335       Eu337   2.420       .  S
O336        C340   1.287       .  A
O336       Eu337   2.427       .  S
Eu337       O347   2.349       .  S
Eu337       O339   2.353   1_655  S
Eu337       O338   2.353       .  S
Eu337       O345   2.348   1_655  S
O338       Eu367   2.354   1_554  S
O338       Eu364   2.365   1_554  S
O339       Eu365   2.365   1_554  S
O339       Eu366   2.351   1_554  S
C340       C1877   1.491       .  S
C341       C1537   1.489       .  S
C342        C777   1.498       .  S
C343        C797   1.497       .  S
H344        O345   0.968       .  S
O345       Eu366   2.343   1_554  S
O345       Eu364   2.356   1_454  S
H346        O347   0.968       .  S
O347       Eu365   2.360   1_654  S
O347       Eu367   2.347   1_554  S
O348        C371   1.296       .  A
O348       Eu364   2.485       .  S
O349        C372   1.296       .  A
O349       Eu365   2.486       .  S
O350        C373   1.284       .  A
O350       Eu366   2.416       .  S
O351        C374   1.288       .  A
O351       Eu367   2.442       .  S
O352        C375   1.290       .  A
O352       Eu367   2.446       .  S
O353        C376   1.286       .  A
O353       Eu366   2.427       .  S
O354        C377   1.294       .  A
O354       Eu368   2.477       .  S
O355        C378   1.296       .  A
O355       Eu368   2.490   1_655  S
O356        C377   1.292       .  A
O356       Eu366   2.465       .  S
O357        C378   1.293       .  A
O357       Eu367   2.472       .  S
O358        C373   1.297       .  A
O358       Eu364   2.494   1_455  S
O359        C376   1.296       .  A
O359       Eu365   2.480       .  S
O360        C375   1.295       .  A
O360       Eu365   2.476   1_655  S
O361        C374   1.295       .  A
O361       Eu364   2.477       .  S
O362        C371   1.287       .  A
O362       Eu368   2.424   1_655  S
O363        C372   1.290       .  A
O363       Eu368   2.448       .  S
Eu364       O382   2.364       .  S
Eu364       O370   2.359   1_655  S
Eu365       O369   2.369   1_455  S
Eu365       O380   2.362       .  S
Eu366       O380   2.350       .  S
Eu366       O370   2.346       .  S
Eu367       O369   2.357       .  S
Eu367       O382   2.345       .  S
Eu368       O369   2.352   1_455  S
Eu368       O380   2.352       .  S
Eu368       O382   2.350   1_455  S
Eu368       O370   2.353       .  S
C371       C1626   1.486       .  S
C372       C1577   1.487       .  S
C373        C697   1.486       .  S
C374        C657   1.490       .  S
C375        C677   1.481       .  S
C376        C726   1.486       .  S
C377        C757   1.498       .  S
C378        C737   1.505       .  S
H379        O380   0.968       .  S
H381        O382   0.968       .  S
N383        C387   1.358       .  A
N383        C384   1.360       .  A
N383        C806   1.444       .  S
C384        C385   1.383       .  A
C384        C646   1.477       .  S
C385        C386   1.369       .  A
C385        H388   1.082       .  S
C386        C387   1.379       .  A
C386        H389   1.082       .  S
C387       C1757   1.471       .  S
N390        C394   1.359       .  A
N390        C391   1.360       .  A
N390        C786   1.449       .  S
C391        C392   1.380       .  A
C391        C617   1.468       .  S
C392        C393   1.367       .  A
C392        H395   1.082       .  S
C393        C394   1.381       .  A
C393        H396   1.082       .  S
C394       C1746   1.470       .  S
N397        C401   1.355       .  A
N397        C398   1.358       .  A
N397        C766   1.445       .  S
C398        C399   1.382       .  A
C398       C1786   1.471       .  S
C399        C400   1.369       .  A
C399        H402   1.082       .  S
C400        C401   1.379       .  A
C400        H403   1.082       .  S
C401        C597   1.463       .  S
N404        C408   1.358       .  A
N404        C405   1.363       .  A
N404        C746   1.455       .  S
C405        C406   1.384       .  A
C405       C1806   1.474       .  S
C406        C407   1.366       .  A
C406        H409   1.082       .  S
C407        C408   1.378       .  A
C407        H410   1.083       .  S
C408        C577   1.461       .  S
N411        C415   1.361       .  A
N411        C412   1.360       .  A
N411        C557   1.447       .  S
C412        C413   1.381       .  A
C412        C717   1.475       .  S
C413        C414   1.369       .  A
C413        H416   1.082       .  S
C414        C415   1.382       .  A
C414        H417   1.082       .  S
C415        C957   1.478       .  S
O418        C429   1.294       .  A
O418       Eu454   2.473       .  S
O419        C430   1.293       .  A
O419       Eu453   2.463       .  S
O420        C431   1.291       .  A
O420       Eu426   2.460       .  S
O421        C432   1.291       .  A
O421       Eu426   2.459       .  S
O422        C432   1.293       .  A
O422       Eu456   2.471       .  S
O423        C431   1.296       .  A
O423       Eu455   2.485       .  S
O424        C430   1.287       .  A
O424       Eu426   2.423       .  S
O425        C429   1.289       .  A
O425       Eu426   2.440   1_554  S
Eu426       O436   2.344   1_556  S
Eu426       O428   2.346   1_556  S
Eu426       O427   2.350       .  S
Eu426       O434   2.353       .  S
O427       Eu456   2.343       .  S
O427       Eu453   2.356       .  S
O428       Eu454   2.361       .  S
O428       Eu455   2.349   1_554  S
C429        C877   1.488       .  S
C430        C817   1.478       .  S
C431        C566   1.499       .  S
C432        C497   1.495       .  S
H433        O434   0.966       .  S
O434       Eu455   2.341       .  S
O434       Eu453   2.358       .  S
H435        O436   0.966       .  S
O436       Eu454   2.354       .  S
O436       Eu456   2.351   1_554  S
O437        C460   1.294       .  A
O437       Eu453   2.471       .  S
O438        C461   1.293       .  A
O438       Eu454   2.463       .  S
O439        C462   1.289       .  A
O439       Eu455   2.438       .  S
O440        C463   1.285       .  A
O440       Eu456   2.420       .  S
O441        C464   1.283       .  A
O441       Eu456   2.405   1_554  S
O442        C465   1.288       .  A
O442       Eu455   2.436   1_554  S
O443        C466   1.292       .  A
O443       Eu457   2.464       .  S
O444        C467   1.295       .  A
O444       Eu457   2.481       .  S
O445        C466   1.293       .  A
O445       Eu455   2.466       .  S
O446        C467   1.291       .  A
O446       Eu456   2.464       .  S
O447        C462   1.293       .  A
O447       Eu453   2.468       .  S
O448        C465   1.297       .  A
O448       Eu454   2.486       .  S
O449        C464   1.298       .  A
O449       Eu454   2.495       .  S
O450        C463   1.294       .  A
O450       Eu453   2.470       .  S
O451        C460   1.290       .  A
O451       Eu457   2.444       .  S
O452        C461   1.290       .  A
O452       Eu457   2.441   1_554  S
Eu453       O471   2.355       .  S
Eu453       O459   2.345       .  S
Eu454       O458   2.357       .  S
Eu454       O469   2.359       .  S
Eu455       O469   2.359   1_556  S
Eu455       O459   2.350       .  S
Eu456       O458   2.347   1_556  S
Eu456       O471   2.350       .  S
Eu457       O458   2.344   1_556  S
Eu457       O469   2.358   1_556  S
Eu457       O471   2.351       .  S
Eu457       O459   2.346       .  S
C460        C846   1.489       .  S
C461        C866   1.484       .  S
C462        C606   1.480       .  S
C463        C586   1.477       .  S
C464        C637   1.485       .  S
C465        C626   1.489       .  S
C466        C517   1.490       .  S
C467        C537   1.500       .  S
H468        O469   0.966       .  S
H470        O471   0.966       .  S
N472        C476   1.359       .  A
N472        C473   1.360       .  A
N472        C546   1.447       .  S
C473        C474   1.382       .  A
C473        C946   1.475       .  S
C474        C475   1.371       .  A
C474        H477   1.082       .  S
C475        C476   1.381       .  A
C475        H478   1.083       .  S
C476        C666   1.473   1_554  S
N479        C483   1.354       .  A
N479        C480   1.356       .  A
N479        C526   1.439       .  S
C480        C481   1.381       .  A
C480        C926   1.470   1_554  S
C481        C482   1.371       .  A
C481        H484   1.082       .  S
C482        C483   1.381       .  A
C482        H485   1.082       .  S
C483        C706   1.470       .  S
N486        C490   1.356       .  A
N486        C487   1.359       .  A
N486        C506   1.448       .  S
C487        C488   1.381       .  A
C487        C686   1.471       .  S
C488        C489   1.370       .  A
C488        H491   1.082       .  S
C489        C490   1.381       .  A
C489        H492   1.082       .  S
C490        C906   1.467       .  S
C493        C494   1.404       .  A
C493        C498   1.402       .  A
C493        H503   1.083       .  S
C494        C495   1.408       .  A
C494        C499   1.490       .  S
C495        C496   1.401       .  A
C495        F500   1.358       .  S
C496        C497   1.408       .  A
C496        H501   1.083       .  S
C497        C498   1.415       .  A
C498        F502   1.357       .  S
C499        C504   1.409   1_556  A
C499        C508   1.404       .  A
C504        C505   1.404       .  A
C504        F509   1.357       .  S
C505        C506   1.408   1_554  A
C505        H510   1.082       .  S
C506        C507   1.407       .  A
C507        C508   1.396       .  A
C507        F511   1.356       .  S
C508        H512   1.083       .  S
C513        C514   1.402       .  A
C513        C518   1.398       .  A
C513        H523   1.083       .  S
C514        C515   1.407   1_556  A
C514        C519   1.485   1_556  S
C515        C516   1.402       .  A
C515        F520   1.358       .  S
C516        C517   1.409   1_554  A
C516        H521   1.083       .  S
C517        C518   1.412       .  A
C518        F522   1.357       .  S
C519        C524   1.407       .  A
C519        C528   1.407   1_554  A
C524        C525   1.399       .  A
C524        F529   1.357       .  S
C525        C526   1.402       .  A
C525        H530   1.083       .  S
C526        C527   1.404   1_554  A
C527        C528   1.401       .  A
C527        F531   1.357       .  S
C528        H532   1.083       .  S
C533        C534   1.403       .  A
C533        C538   1.404       .  A
C533        H543   1.084       .  S
C534        C535   1.404       .  A
C534        C539   1.488       .  S
C535        C536   1.403   1_554  A
C535        F540   1.357   1_554  S
C536        C537   1.410       .  A
C536        H541   1.083       .  S
C537        C538   1.416   1_556  A
C538        F542   1.358       .  S
C539        C544   1.407       .  A
C539        C548   1.405   1_554  A
C544        C545   1.401       .  A
C544        F549   1.357       .  S
C545        C546   1.405       .  A
C545        H550   1.083       .  S
C546        C547   1.407   1_554  A
C547        C548   1.402       .  A
C547        F551   1.356       .  S
C548        H552   1.083       .  S
C553        C554   1.406   1_554  A
C553        C558   1.402       .  A
C553        H563   1.083       .  S
C554        C555   1.408       .  A
C554        C559   1.491       .  S
C555        C556   1.402       .  A
C555        F560   1.357       .  S
C556        C557   1.405       .  A
C556        H561   1.083       .  S
C557        C558   1.408   1_556  A
C558        F562   1.356       .  S
C559        C564   1.406       .  A
C559        C568   1.405       .  A
C564        C565   1.402       .  A
C564        F569   1.357       .  S
C565        C566   1.409       .  A
C565        H570   1.083       .  S
C566        C567   1.415       .  A
C567        C568   1.404       .  A
C567        F571   1.358       .  S
C568        H572   1.083       .  S
C573        C574   1.407       .  A
C573        C578   1.393       .  A
C573        H583   1.083       .  S
C574        C575   1.407       .  A
C574        C579   1.478       .  S
C575        C576   1.394       .  A
C575        F580   1.358       .  S
C576        C577   1.401       .  A
C576        H581   1.084       .  S
C577        C578   1.398       .  A
C578        F582   1.357       .  S
C579        C584   1.408       .  A
C579        C588   1.401       .  A
C584        C585   1.395       .  A
C584        F589   1.357       .  S
C585        C586   1.403       .  A
C585        H590   1.083       .  S
C586        C587   1.413       .  A
C587        C588   1.392       .  A
C587        F591   1.358       .  S
C588        H592   1.083       .  S
C593        C594   1.402       .  A
C593        C598   1.393       .  A
C593        H603   1.084       .  S
C594        C595   1.405       .  A
C594        C599   1.470       .  S
C595        C596   1.397       .  A
C595        F600   1.357       .  S
C596        C597   1.400       .  A
C596        H601   1.083       .  S
C597        C598   1.403       .  A
C598        F602   1.358       .  S
C599        C604   1.399       .  A
C599        C608   1.403       .  A
C604        C605   1.393       .  A
C604        F609   1.358       .  S
C605        C606   1.408       .  A
C605        H610   1.083       .  S
C606        C607   1.410       .  A
C607        C608   1.399       .  A
C607        F611   1.357       .  S
C608        H612   1.084       .  S
C613        C614   1.405       .  A
C613        C618   1.397       .  A
C613        H623   1.083       .  S
C614        C615   1.406       .  A
C614        C619   1.478       .  S
C615        C616   1.396       .  A
C615        F620   1.358       .  S
C616        C617   1.402       .  A
C616        H621   1.084       .  S
C617        C618   1.402       .  A
C618        F622   1.357       .  S
C619        C624   1.406       .  A
C619        C628   1.400       .  A
C624        C625   1.399       .  A
C624        F629   1.357       .  S
C625        C626   1.407       .  A
C625        H630   1.083       .  S
C626        C627   1.415       .  A
C627        C628   1.397       .  A
C627        F631   1.358       .  S
C628        H632   1.084       .  S
C633        C634   1.406       .  A
C633        C638   1.399       .  A
C633        H643   1.083       .  S
C634        C635   1.400       .  A
C634        C639   1.477       .  S
C635        C636   1.395       .  A
C635        F640   1.358       .  S
C636        C637   1.413       .  A
C636        H641   1.083       .  S
C637        C638   1.406       .  A
C638        F642   1.357       .  S
C639        C644   1.408       .  A
C639        C648   1.400       .  A
C644        C645   1.403       .  A
C644        F649   1.358       .  S
C645        C646   1.404       .  A
C645        H650   1.083       .  S
C646        C647   1.406       .  A
C647        C648   1.393       .  A
C647        F651   1.358       .  S
C648        H652   1.084       .  S
C653        C654   1.398       .  A
C653        C658   1.397       .  A
C653        H663   1.083       .  S
C654        C655   1.408       .  A
C654        C659   1.481       .  S
C655        C656   1.400       .  A
C655        F660   1.358       .  S
C656        C657   1.407       .  A
C656        H661   1.083       .  S
C657        C658   1.416       .  A
C658        F662   1.357       .  S
C659        C664   1.404       .  A
C659        C668   1.407   1_556  A
C664        C665   1.395       .  A
C664        F669   1.357       .  S
C665        C666   1.402       .  A
C665        H670   1.084       .  S
C666        C667   1.403   1_556  A
C667        C668   1.401       .  A
C667        F671   1.357       .  S
C668        H672   1.083       .  S
C673        C674   1.406       .  A
C673        C678   1.399       .  A
C673        H683   1.083       .  S
C674        C675   1.404       .  A
C674        C679   1.482       .  S
C675        C676   1.397   1_556  A
C675        F680   1.358   1_556  S
C676        C677   1.408   1_554  A
C676        H681   1.083       .  S
C677        C678   1.406       .  A
C678        F682   1.357       .  S
C679        C684   1.407       .  A
C679        C688   1.406   1_556  A
C684        C685   1.395       .  A
C684        F689   1.357       .  S
C685        C686   1.401       .  A
C685        H690   1.084       .  S
C686        C687   1.403       .  A
C687        C688   1.399   1_556  A
C687        F691   1.358   1_556  S
C688        H692   1.083       .  S
C693        C694   1.396   1_556  A
C693        C698   1.392       .  A
C693        H703   1.084       .  S
C694        C695   1.410       .  A
C694        C699   1.478       .  S
C695        C696   1.401       .  A
C695        F700   1.358       .  S
C696        C697   1.404   1_554  A
C696        H701   1.083       .  S
C697        C698   1.417       .  A
C698        F702   1.357       .  S
C699        C704   1.404       .  A
C699        C708   1.406   1_554  A
C704        C705   1.393       .  A
C704        F709   1.357       .  S
C705        C706   1.401       .  A
C705        H710   1.083       .  S
C706        C707   1.405   1_554  A
C707        C708   1.399       .  A
C707        F711   1.357       .  S
C708        H712   1.083       .  S
C713        C714   1.400   1_554  A
C713        C718   1.392       .  A
C713        H723   1.084       .  S
C714        C715   1.408       .  A
C714        C719   1.477       .  S
C715        C716   1.403       .  A
C715        F720   1.358       .  S
C716        C717   1.403       .  A
C716        H721   1.083       .  S
C717        C718   1.405   1_556  A
C718        F722   1.358       .  S
C719        C724   1.406       .  A
C719        C728   1.399       .  A
C724        C725   1.396       .  A
C724        F729   1.357       .  S
C725        C726   1.405       .  A
C725        H730   1.083       .  S
C726        C727   1.417       .  A
C727        C728   1.397       .  A
C727        F731   1.358       .  S
C728        H732   1.083       .  S
C733        C734   1.407       .  A
C733        C738   1.405       .  A
C733        H743   1.083       .  S
C734        C735   1.407       .  A
C734        C739   1.499       .  S
C735        C736   1.406       .  A
C735        F740   1.357       .  S
C736        C737   1.413       .  A
C736        H741   1.083       .  S
C737        C738   1.413       .  A
C738        F742   1.357       .  S
C739        C744   1.410       .  A
C739        C748   1.406       .  A
C744        C745   1.407       .  A
C744        F749   1.357       .  S
C745        C746   1.410       .  A
C745        H750   1.082       .  S
C746        C747   1.408       .  A
C747        C748   1.402       .  A
C747        F751   1.356       .  S
C748        H752   1.083       .  S
C753        C754   1.404       .  A
C753        C758   1.403       .  A
C753        H763   1.083       .  S
C754        C755   1.405       .  A
C754        C759   1.489       .  S
C755        C756   1.402       .  A
C755        F760   1.357       .  S
C756        C757   1.410       .  A
C756        H761   1.083       .  S
C757        C758   1.415       .  A
C758        F762   1.357       .  S
C759        C764   1.407       .  A
C759        C768   1.406       .  A
C764        C765   1.401       .  A
C764        F769   1.358       .  S
C765        C766   1.405       .  A
C765        H770   1.083       .  S
C766        C767   1.406       .  A
C767        C768   1.403       .  A
C767        F771   1.356       .  S
C768        H772   1.083       .  S
C773        C774   1.401       .  A
C773        C778   1.400       .  A
C773        H783   1.083       .  S
C774        C775   1.406       .  A
C774        C779   1.485       .  S
C775        C776   1.404       .  A
C775        F780   1.358       .  S
C776        C777   1.411       .  A
C776        H781   1.083       .  S
C777        C778   1.414       .  A
C778        F782   1.357       .  S
C779        C784   1.406       .  A
C779        C788   1.403       .  A
C784        C785   1.401       .  A
C784        F789   1.357       .  S
C785        C786   1.406       .  A
C785        H790   1.082       .  S
C786        C787   1.410       .  A
C787        C788   1.401       .  A
C787        F791   1.356       .  S
C788        H792   1.083       .  S
C793        C794   1.404       .  A
C793        C798   1.403       .  A
C793        H803   1.083       .  S
C794        C795   1.405       .  A
C794        C799   1.489       .  S
C795        C796   1.401       .  A
C795        F800   1.357       .  S
C796        C797   1.411       .  A
C796        H801   1.083       .  S
C797        C798   1.413       .  A
C798        F802   1.357       .  S
C799        C804   1.408       .  A
C799        C808   1.406       .  A
C804        C805   1.402       .  A
C804        F809   1.357       .  S
C805        C806   1.404       .  A
C805        H810   1.083       .  S
C806        C807   1.406       .  A
C807        C808   1.403       .  A
C807        F811   1.357       .  S
C808        H812   1.083       .  S
C813        C814   1.404       .  A
C813        C818   1.395       .  A
C813        H823   1.083       .  S
C814        C815   1.401       .  A
C814        C819   1.472       .  S
C815        C816   1.390       .  A
C815        F820   1.358       .  S
C816        C817   1.409       .  A
C816        H821   1.083       .  S
C817        C818   1.408       .  A
C818        F822   1.358       .  S
C819        C824   1.403       .  A
C819        C828   1.406       .  A
C824        C825   1.391       .  A
C824        F829   1.358       .  S
C825        C826   1.404       .  A
C825        H830   1.084       .  S
C826        C827   1.401       .  A
C827        C828   1.395       .  A
C827        F831   1.357       .  S
C828        H832   1.083       .  S
C833        C834   1.408       .  A
C833        C838   1.401       .  A
C833        H843   1.083       .  S
C834        C835   1.407       .  A
C834        C839   1.485       .  S
C835        C836   1.396       .  A
C835        F840   1.358       .  S
C836        C837   1.402       .  A
C836        H841   1.084       .  S
C837        C838   1.402       .  A
C838        F842   1.357       .  S
C839        C844   1.403       .  A
C839        C848   1.406       .  A
C844        C845   1.397       .  A
C844        F849   1.357       .  S
C845        C846   1.410       .  A
C845        H850   1.083       .  S
C846        C847   1.410       .  A
C847        C848   1.400       .  A
C847        F851   1.358       .  S
C848        H852   1.083       .  S
C853        C854   1.404       .  A
C853        C858   1.400       .  A
C853        H863   1.083       .  S
C854        C855   1.403       .  A
C854        C859   1.476       .  S
C855        C856   1.393       .  A
C855        F860   1.358       .  S
C856        C857   1.404       .  A
C856        H861   1.084       .  S
C857        C858   1.406       .  A
C858        F862   1.357       .  S
C859        C864   1.401       .  A
C859        C868   1.404       .  A
C864        C865   1.394       .  A
C864        F869   1.357       .  S
C865        C866   1.410       .  A
C865        H870   1.083       .  S
C866        C867   1.410       .  A
C867        C868   1.398       .  A
C867        F871   1.358       .  S
C868        H872   1.083       .  S
C873        C874   1.406       .  A
C873        C878   1.400       .  A
C873        H883   1.084       .  S
C874        C875   1.399       .  A
C874        C879   1.477       .  S
C875        C876   1.395       .  A
C875        F880   1.357       .  S
C876        C877   1.412       .  A
C876        H881   1.083       .  S
C877        C878   1.410       .  A
C878        F882   1.358       .  S
C879        C884   1.410       .  A
C879        C888   1.400       .  A
C884        C885   1.402       .  A
C884        F889   1.358       .  S
C885        C886   1.402       .  A
C885        H890   1.083       .  S
C886        C887   1.404       .  A
C887        C888   1.392       .  A
C887        F891   1.357       .  S
C888        H892   1.083       .  S
C893        C894   1.396       .  A
C893        C898   1.396   1_556  A
C893        H903   1.084   1_556  S
C894        C895   1.407       .  A
C894        C899   1.473       .  S
C895        C896   1.397       .  A
C895        F900   1.357       .  S
C896        C897   1.402       .  A
C896        H901   1.083       .  S
C897        C898   1.420   1_556  A
C898        F902   1.358       .  S
C899        C904   1.409       .  A
C899        C908   1.399   1_556  A
C904        C905   1.402       .  A
C904        F909   1.358       .  S
C905        C906   1.402       .  A
C905        H910   1.083       .  S
C906        C907   1.401   1_556  A
C907        C908   1.390       .  A
C907        F911   1.357       .  S
C908        H912   1.083       .  S
C913        C914   1.397       .  A
C913        C918   1.396       .  A
C913        H923   1.084       .  S
C914        C915   1.405   1_556  A
C914        C919   1.472       .  S
C915        C916   1.399       .  A
C915        F920   1.357       .  S
C916        C917   1.407   1_554  A
C916        H921   1.083       .  S
C917        C918   1.414       .  A
C918        F922   1.358       .  S
C919        C924   1.403       .  A
C919        C928   1.403   1_556  A
C924        C925   1.396       .  A
C924        F929   1.357       .  S
C925        C926   1.403       .  A
C925        H930   1.084       .  S
C926        C927   1.404   1_556  A
C927        C928   1.400       .  A
C927        F931   1.357       .  S
C928        H932   1.083       .  S
C933        C934   1.400       .  A
C933        C938   1.395       .  A
C933        H943   1.084       .  S
C934        C935   1.410       .  A
C934        C939   1.485       .  S
C935        C936   1.402       .  A
C935        F940   1.357       .  S
C936        C937   1.405       .  A
C936        H941   1.083       .  S
C937        C938   1.417       .  A
C938        F942   1.358   1_554  S
C939        C944   1.407       .  A
C939        C948   1.407   1_554  A
C944        C945   1.398       .  A
C944        F949   1.357       .  S
C945        C946   1.404       .  A
C945        H950   1.084       .  S
C946        C947   1.403   1_554  A
C947        C948   1.397       .  A
C947        F951   1.357       .  S
C948        H952   1.083       .  S
C953        C954   1.403       .  A
C953        C958   1.395       .  A
C953        H963   1.083       .  S
C954        C955   1.409       .  A
C954        C959   1.482       .  S
C955        C956   1.401       .  A
C955        F960   1.357   1_556  S
C956        C957   1.403       .  A
C956        H961   1.083   1_556  S
C957        C958   1.406       .  A
C958        F962   1.358       .  S
C959        C964   1.409       .  A
C959        C968   1.400       .  A
C964        C965   1.397       .  A
C964        F969   1.357       .  S
C965        C966   1.403       .  A
C965        H970   1.083       .  S
C966        C967   1.416       .  A
C967        C968   1.396       .  A
C967        F971   1.359       .  S
C968        H972   1.083       .  S
C973        C974   1.407       .  A
C973        C978   1.408       .  A
C973        H983   1.083       .  S
C974        C975   1.405       .  A
C974        C979   1.496       .  S
C975        C976   1.402       .  A
C975        F980   1.357       .  S
C976        C977   1.410       .  A
C976        H981   1.083       .  S
C977        C978   1.416       .  A
C978        F982   1.358       .  S
C979        C984   1.407       .  A
C979        C988   1.407       .  A
C984        C985   1.404       .  A
C984        F989   1.357       .  S
C985        C986   1.408       .  A
C985        H990   1.082       .  S
C986        C987   1.410       .  A
C987        C988   1.405       .  A
C987        F991   1.356       .  S
C988        H992   1.083       .  S
C993        C994   1.404       .  A
C993        C998   1.404       .  A
C993       H1003   1.083       .  S
C994        C995   1.405       .  A
C994        C999   1.488       .  S
C995        C996   1.403       .  A
C995       F1000   1.358       .  S
C996        C997   1.412       .  A
C996       H1001   1.083       .  S
C997        C998   1.413       .  A
C998       F1002   1.357       .  S
C999       C1004   1.408       .  A
C999       C1008   1.405       .  A
C1004      C1005   1.403       .  A
C1004      F1009   1.357       .  S
C1005      C1006   1.404       .  A
C1005      H1010   1.083       .  S
C1006      C1007   1.407       .  A
C1007      C1008   1.401       .  A
C1007      F1011   1.357       .  S
C1008      H1012   1.083       .  S
C1013      C1014   1.407       .  A
C1013      C1018   1.407       .  A
C1013      H1023   1.083       .  S
C1014      C1015   1.406       .  A
C1014      C1019   1.498       .  S
C1015      C1016   1.404       .  A
C1015      F1020   1.357       .  S
C1016      C1017   1.411       .  A
C1016      H1021   1.083       .  S
C1017      C1018   1.415       .  A
C1018      F1022   1.357       .  S
C1019      C1024   1.408       .  A
C1019      C1028   1.407       .  A
C1024      C1025   1.404       .  A
C1024      F1029   1.356       .  S
C1025      C1026   1.405       .  A
C1025      H1030   1.082       .  S
C1026      C1027   1.411       .  A
C1027      C1028   1.405       .  A
C1027      F1031   1.357       .  S
C1028      H1032   1.083       .  S
C1033      C1034   1.406       .  A
C1033      C1038   1.403       .  A
C1033      H1043   1.083       .  S
C1034      C1035   1.405       .  A
C1034      C1039   1.488       .  S
C1035      C1036   1.400       .  A
C1035      F1040   1.358       .  S
C1036      C1037   1.410       .  A
C1036      H1041   1.083       .  S
C1037      C1038   1.411       .  A
C1038      F1042   1.357       .  S
C1039      C1044   1.410       .  A
C1039      C1048   1.406       .  A
C1044      C1045   1.401       .  A
C1044      F1049   1.358       .  S
C1045      C1046   1.403       .  A
C1045      H1050   1.083       .  S
C1046      C1047   1.402       .  A
C1047      C1048   1.399       .  A
C1047      F1051   1.356       .  S
C1048      H1052   1.083       .  S
C1053      C1054   1.408       .  A
C1053      C1058   1.403       .  A
C1053      H1063   1.083       .  S
C1054      C1055   1.402   1_565  A
C1054      C1059   1.479       .  S
C1055      C1056   1.391       .  A
C1055      F1060   1.358       .  S
C1056      C1057   1.403   1_545  A
C1056      H1061   1.084       .  S
C1057      C1058   1.405       .  A
C1058      F1062   1.357       .  S
C1059      C1064   1.399   1_565  A
C1059      C1068   1.408       .  A
C1064      C1065   1.393       .  A
C1064      F1069   1.357       .  S
C1065      C1066   1.412   1_545  A
C1065      H1070   1.083       .  S
C1066      C1067   1.408       .  A
C1067      C1068   1.400       .  A
C1067      F1071   1.357       .  S
C1068      H1072   1.083       .  S
C1073      C1074   1.405       .  A
C1073      C1078   1.397       .  A
C1073      H1083   1.083       .  S
C1074      C1075   1.406   1_565  A
C1074      C1079   1.479       .  S
C1075      C1076   1.397       .  A
C1075      F1080   1.357       .  S
C1076      C1077   1.401   1_545  A
C1076      H1081   1.083       .  S
C1077      C1078   1.402       .  A
C1078      F1082   1.358       .  S
C1079      C1084   1.400       .  A
C1079      C1088   1.406   1_565  A
C1084      C1085   1.394       .  A
C1084      F1089   1.358       .  S
C1085      C1086   1.412       .  A
C1085      H1090   1.083       .  S
C1086      C1087   1.408   1_565  A
C1087      C1088   1.402       .  A
C1087      F1091   1.357       .  S
C1088      H1092   1.083       .  S
C1093      C1094   1.396       .  A
C1093      C1098   1.395       .  A
C1093      H1103   1.083       .  S
C1094      C1095   1.405   1_565  A
C1094      C1099   1.469       .  S
C1095      C1096   1.398       .  A
C1095      F1100   1.358       .  S
C1096      C1097   1.405   1_545  A
C1096      H1101   1.083       .  S
C1097      C1098   1.415       .  A
C1098      F1102   1.358       .  S
C1099      C1104   1.406   1_565  A
C1099      C1108   1.398       .  A
C1104      C1105   1.401       .  A
C1104      F1109   1.358       .  S
C1105      C1106   1.405   1_545  A
C1105      H1110   1.083       .  S
C1106      C1107   1.403       .  A
C1107      C1108   1.389       .  A
C1107      F1111   1.357       .  S
C1108      H1112   1.084       .  S
C1113      C1114   1.397       .  A
C1113      C1118   1.395       .  A
C1113      H1123   1.084       .  S
C1114      C1115   1.406       .  A
C1114      C1119   1.475       .  S
C1115      C1116   1.397       .  A
C1115      F1120   1.357       .  S
C1116      C1117   1.403       .  A
C1116      H1121   1.083       .  S
C1117      C1118   1.418       .  A
C1118      F1122   1.359       .  S
C1119      C1124   1.404       .  A
C1119      C1128   1.403       .  A
C1124      C1125   1.394       .  A
C1124      F1129   1.358       .  S
C1125      C1126   1.402       .  A
C1125      H1130   1.083       .  S
C1126      C1127   1.407       .  A
C1127      C1128   1.399       .  A
C1127      F1131   1.356       .  S
C1128      H1132   1.083       .  S
C1133      C1134   1.405       .  A
C1133      C1138   1.398       .  A
C1133      H1143   1.083       .  S
C1134      C1135   1.401       .  A
C1134      C1139   1.479       .  S
C1135      C1136   1.396       .  A
C1135      F1140   1.358       .  S
C1136      C1137   1.413       .  A
C1136      H1141   1.083       .  S
C1137      C1138   1.406       .  A
C1138      F1142   1.357       .  S
C1139      C1144   1.404       .  A
C1139      C1148   1.406       .  A
C1144      C1145   1.395       .  A
C1144      F1149   1.358       .  S
C1145      C1146   1.403       .  A
C1145      H1150   1.084       .  S
C1146      C1147   1.402       .  A
C1147      C1148   1.401       .  A
C1147      F1151   1.357       .  S
C1148      H1152   1.083       .  S
C1153      C1154   1.407       .  A
C1153      C1158   1.400       .  A
C1153      H1163   1.083       .  S
C1154      C1155   1.402       .  A
C1154      C1159   1.480       .  S
C1155      C1156   1.392       .  A
C1155      F1160   1.357       .  S
C1156      C1157   1.408       .  A
C1156      H1161   1.083       .  S
C1157      C1158   1.410       .  A
C1158      F1162   1.358       .  S
C1159      C1164   1.406       .  A
C1159      C1168   1.407       .  A
C1164      C1165   1.394       .  A
C1164      F1169   1.358       .  S
C1165      C1166   1.403       .  A
C1165      H1170   1.084       .  S
C1166      C1167   1.401       .  A
C1167      C1168   1.395       .  A
C1167      F1171   1.357       .  S
C1168      H1172   1.083       .  S
C1173      C1174   1.406       .  A
C1173      C1178   1.399       .  A
C1173      H1183   1.083       .  S
C1174      C1175   1.405       .  A
C1174      C1179   1.487       .  S
C1175      C1176   1.399       .  A
C1175      F1180   1.358       .  S
C1176      C1177   1.409       .  A
C1176      H1181   1.083       .  S
C1177      C1178   1.409       .  A
C1178      F1182   1.357       .  S
C1179      C1184   1.407       .  A
C1179      C1188   1.407       .  A
C1184      C1185   1.396       .  A
C1184      F1189   1.358       .  S
C1185      C1186   1.403       .  A
C1185      H1190   1.083       .  S
C1186      C1187   1.406       .  A
C1187      C1188   1.401       .  A
C1187      F1191   1.357       .  S
C1188      H1192   1.083       .  S
C1193      C1194   1.408   1_545  A
C1193      C1198   1.408       .  A
C1193      H1203   1.083       .  S
C1194      C1195   1.405       .  A
C1194      C1199   1.489       .  S
C1195      C1196   1.397       .  A
C1195      F1200   1.357       .  S
C1196      C1197   1.403       .  A
C1196      H1201   1.083       .  S
C1197      C1198   1.408   1_565  A
C1198      F1202   1.357       .  S
C1199      C1204   1.405   1_565  A
C1199      C1208   1.404       .  A
C1204      C1205   1.403       .  A
C1204      F1209   1.357       .  S
C1205      C1206   1.411   1_545  A
C1205      H1210   1.083       .  S
C1206      C1207   1.413       .  A
C1207      C1208   1.401       .  A
C1207      F1211   1.357       .  S
C1208      H1212   1.083       .  S
C1213      C1214   1.407   1_545  A
C1213      C1218   1.403       .  A
C1213      H1223   1.083       .  S
C1214      C1215   1.408       .  A
C1214      C1219   1.495       .  S
C1215      C1216   1.401       .  A
C1215      F1220   1.358       .  S
C1216      C1217   1.409       .  A
C1216      H1221   1.083       .  S
C1217      C1218   1.410   1_565  A
C1218      F1222   1.357       .  S
C1219      C1224   1.410   1_565  A
C1219      C1228   1.409       .  A
C1224      C1225   1.400       .  A
C1224      F1229   1.357       .  S
C1225      C1226   1.402   1_545  A
C1225      H1230   1.083       .  S
C1226      C1227   1.404       .  A
C1227      C1228   1.402       .  A
C1227      F1231   1.357       .  S
C1228      H1232   1.083       .  S
C1233      C1234   1.405       .  A
C1233      C1238   1.400       .  A
C1233      H1243   1.083       .  S
C1234      C1235   1.407   1_565  A
C1234      C1239   1.488       .  S
C1235      C1236   1.398       .  A
C1235      F1240   1.357       .  S
C1236      C1237   1.406   1_545  A
C1236      H1241   1.083       .  S
C1237      C1238   1.412       .  A
C1238      F1242   1.358       .  S
C1239      C1244   1.409       .  A
C1239      C1248   1.406   1_565  A
C1244      C1245   1.400       .  A
C1244      F1249   1.357       .  S
C1245      C1246   1.403       .  A
C1245      H1250   1.083       .  S
C1246      C1247   1.404   1_565  A
C1247      C1248   1.398       .  A
C1247      F1251   1.356       .  S
C1248      H1252   1.083       .  S
C1253      C1254   1.400   1_545  A
C1253      C1258   1.400       .  A
C1253      H1263   1.083       .  S
C1254      C1255   1.407       .  A
C1254      C1259   1.483       .  S
C1255      C1256   1.398       .  A
C1255      F1260   1.357       .  S
C1256      C1257   1.405       .  A
C1256      H1261   1.083       .  S
C1257      C1258   1.418   1_565  A
C1258      F1262   1.358       .  S
C1259      C1264   1.410   1_565  A
C1259      C1268   1.403       .  A
C1264      C1265   1.404       .  A
C1264      F1269   1.358       .  S
C1265      C1266   1.403   1_545  A
C1265      H1270   1.083       .  S
C1266      C1267   1.401       .  A
C1267      C1268   1.393       .  A
C1267      F1271   1.357       .  S
C1268      H1272   1.083       .  S
C1273      C1274   1.409       .  A
C1273      C1278   1.406       .  A
C1273      H1283   1.083       .  S
C1274      C1275   1.411   1_565  A
C1274      C1279   1.496       .  S
C1275      C1276   1.397       .  A
C1275      F1280   1.357       .  S
C1276      C1277   1.398   1_545  A
C1276      H1281   1.083       .  S
C1277      C1278   1.406       .  A
C1278      F1282   1.357       .  S
C1279      C1284   1.409       .  A
C1279      C1288   1.405   1_565  A
C1284      C1285   1.406       .  A
C1284      F1289   1.358       .  S
C1285      C1286   1.411       .  A
C1285      H1290   1.083       .  S
C1286      C1287   1.410   1_565  A
C1287      C1288   1.399       .  A
C1287      F1291   1.357       .  S
C1288      H1292   1.083       .  S
C1293      C1294   1.399       .  A
C1293      C1298   1.396       .  A
C1293      H1303   1.084       .  S
C1294      C1295   1.405       .  A
C1294      C1299   1.478       .  S
C1295      C1296   1.400       .  A
C1295      F1300   1.358       .  S
C1296      C1297   1.408       .  A
C1296      H1301   1.083       .  S
C1297      C1298   1.415       .  A
C1298      F1302   1.357       .  S
C1299      C1304   1.406       .  A
C1299      C1308   1.403       .  A
C1304      C1305   1.397       .  A
C1304      F1309   1.357       .  S
C1305      C1306   1.402       .  A
C1305      H1310   1.083       .  S
C1306      C1307   1.406       .  A
C1307      C1308   1.397       .  A
C1307      F1311   1.358       .  S
C1308      H1312   1.083       .  S
C1313      C1314   1.406       .  A
C1313      C1318   1.401       .  A
C1313      H1323   1.083       .  S
C1314      C1315   1.401       .  A
C1314      C1319   1.475       .  S
C1315      C1316   1.392       .  A
C1315      F1320   1.357       .  S
C1316      C1317   1.403       .  A
C1316      H1321   1.084       .  S
C1317      C1318   1.405       .  A
C1318      F1322   1.357       .  S
C1319      C1324   1.399       .  A
C1319      C1328   1.405       .  A
C1324      C1325   1.395       .  A
C1324      F1329   1.358       .  S
C1325      C1326   1.412       .  A
C1325      H1330   1.083       .  S
C1326      C1327   1.408       .  A
C1327      C1328   1.398       .  A
C1327      F1331   1.357       .  S
C1328      H1332   1.083       .  S
C1333      C1334   1.402       .  A
C1333      C1338   1.396       .  A
C1333      H1343   1.083       .  S
C1334      C1335   1.398       .  A
C1334      C1339   1.465       .  S
C1335      C1336   1.394       .  A
C1335      F1340   1.358       .  S
C1336      C1337   1.411       .  A
C1336      H1341   1.083       .  S
C1337      C1338   1.407       .  A
C1338      F1342   1.357       .  S
C1339      C1344   1.400       .  A
C1339      C1348   1.403       .  A
C1344      C1345   1.390       .  A
C1344      F1349   1.358       .  S
C1345      C1346   1.403       .  A
C1345      H1350   1.084       .  S
C1346      C1347   1.403       .  A
C1347      C1348   1.400       .  A
C1347      F1351   1.357       .  S
C1348      H1352   1.083       .  S
C1353      C1354   1.405       .  A
C1353      C1358   1.397       .  A
C1353      H1363   1.083       .  S
C1354      C1355   1.409       .  A
C1354      C1359   1.487       .  S
C1355      C1356   1.400       .  A
C1355      F1360   1.357       .  S
C1356      C1357   1.403       .  A
C1356      H1361   1.083       .  S
C1357      C1358   1.405       .  A
C1358      F1362   1.358       .  S
C1359      C1364   1.410       .  A
C1359      C1368   1.402       .  A
C1364      C1365   1.400       .  A
C1364      F1369   1.357       .  S
C1365      C1366   1.404       .  A
C1365      H1370   1.083       .  S
C1366      C1367   1.414       .  A
C1367      C1368   1.398       .  A
C1367      F1371   1.358       .  S
C1368      H1372   1.083       .  S
C1373      C1374   1.406       .  A
C1373      C1378   1.399       .  A
C1373      H1383   1.083       .  S
C1374      C1375   1.397       .  A
C1374      C1379   1.471       .  S
C1375      C1376   1.389       .  A
C1375      F1380   1.357       .  S
C1376      C1377   1.409       .  A
C1376      H1381   1.083       .  S
C1377      C1378   1.409       .  A
C1378      F1382   1.358   1_565  S
C1379      C1384   1.400       .  A
C1379      C1388   1.404   1_565  A
C1384      C1385   1.390       .  A
C1384      F1389   1.358       .  S
C1385      C1386   1.405       .  A
C1385      H1390   1.083       .  S
C1386      C1387   1.408   1_565  A
C1387      C1388   1.399       .  A
C1387      F1391   1.356       .  S
C1388      H1392   1.083       .  S
C1393      C1394   1.399       .  A
C1393      C1398   1.391       .  A
C1393      H1403   1.084       .  S
C1394      C1395   1.405   1_545  A
C1394      C1399   1.468       .  S
C1395      C1396   1.399       .  A
C1395      F1400   1.358       .  S
C1396      C1397   1.403   1_565  A
C1396      H1401   1.083       .  S
C1397      C1398   1.404       .  A
C1398      F1402   1.357       .  S
C1399      C1404   1.404   1_545  A
C1399      C1408   1.397       .  A
C1404      C1405   1.394       .  A
C1404      F1409   1.357       .  S
C1405      C1406   1.404       .  A
C1405      H1410   1.083       .  S
C1406      C1407   1.417   1_565  A
C1407      C1408   1.394       .  A
C1407      F1411   1.358       .  S
C1408      H1412   1.084       .  S
C1413      C1414   1.401   1_545  A
C1413      C1418   1.396       .  A
C1413      H1423   1.083       .  S
C1414      C1415   1.402       .  A
C1414      C1419   1.467       .  S
C1415      C1416   1.395       .  A
C1415      F1420   1.358       .  S
C1416      C1417   1.403       .  A
C1416      H1421   1.083       .  S
C1417      C1418   1.403   1_565  A
C1418      F1422   1.357       .  S
C1419      C1424   1.398       .  A
C1419      C1428   1.403       .  A
C1424      C1425   1.392   1_565  A
C1424      F1429   1.358   1_565  S
C1425      C1426   1.412   1_545  A
C1425      H1430   1.083       .  S
C1426      C1427   1.405       .  A
C1427      C1428   1.396       .  A
C1427      F1431   1.357       .  S
C1428      H1432   1.083       .  S
C1433      C1434   1.404   1_565  A
C1433      C1438   1.398       .  A
C1433      H1443   1.083       .  S
C1434      C1435   1.403       .  A
C1434      C1439   1.474       .  S
C1435      C1436   1.394       .  A
C1435      F1440   1.358       .  S
C1436      C1437   1.403       .  A
C1436      H1441   1.084       .  S
C1437      C1438   1.404   1_545  A
C1438      F1442   1.357       .  S
C1439      C1444   1.399   1_545  A
C1439      C1448   1.405       .  A
C1444      C1445   1.393       .  A
C1444      F1449   1.357       .  S
C1445      C1446   1.411       .  A
C1445      H1450   1.083       .  S
C1446      C1447   1.410       .  A
C1447      C1448   1.399   1_565  A
C1447      F1451   1.358       .  S
C1448      H1452   1.084       .  S
C1453      C1454   1.404       .  A
C1453      C1458   1.400       .  A
C1453      H1463   1.083       .  S
C1454      C1455   1.404       .  A
C1454      C1459   1.484       .  S
C1455      C1456   1.399       .  A
C1455      F1460   1.357       .  S
C1456      C1457   1.410       .  A
C1456      H1461   1.083       .  S
C1457      C1458   1.411       .  A
C1458      F1462   1.357       .  S
C1459      C1464   1.407       .  A
C1459      C1468   1.404       .  A
C1464      C1465   1.401       .  A
C1464      F1469   1.358       .  S
C1465      C1466   1.404       .  A
C1465      H1470   1.083       .  S
C1466      C1467   1.407       .  A
C1467      C1468   1.400       .  A
C1467      F1471   1.356       .  S
C1468      H1472   1.083       .  S
C1473      C1474   1.406       .  A
C1473      C1478   1.404       .  A
C1473      H1483   1.083       .  S
C1474      C1475   1.408       .  A
C1474      C1479   1.496       .  S
C1475      C1476   1.401       .  A
C1475      F1480   1.357       .  S
C1476      C1477   1.407       .  A
C1476      H1481   1.083       .  S
C1477      C1478   1.416       .  A
C1478      F1482   1.358       .  S
C1479      C1484   1.411       .  A
C1479      C1488   1.407       .  A
C1484      C1485   1.404       .  A
C1484      F1489   1.357       .  S
C1485      C1486   1.405       .  A
C1485      H1490   1.083       .  S
C1486      C1487   1.406       .  A
C1487      C1488   1.399       .  A
C1487      F1491   1.356       .  S
C1488      H1492   1.083       .  S
C1493      C1494   1.405       .  A
C1493      C1498   1.403       .  A
C1493      H1503   1.083       .  S
C1494      C1495   1.408       .  A
C1494      C1499   1.496       .  S
C1495      C1496   1.404       .  A
C1495      F1500   1.357       .  S
C1496      C1497   1.410       .  A
C1496      H1501   1.083       .  S
C1497      C1498   1.414       .  A
C1498      F1502   1.357       .  S
C1499      C1504   1.410       .  A
C1499      C1508   1.407       .  A
C1504      C1505   1.404       .  A
C1504      F1509   1.357       .  S
C1505      C1506   1.404       .  A
C1505      H1510   1.082       .  S
C1506      C1507   1.409       .  A
C1507      C1508   1.403       .  A
C1507      F1511   1.357       .  S
C1508      H1512   1.083       .  S
C1513      C1514   1.400       .  A
C1513      C1518   1.397       .  A
C1513      H1523   1.083       .  S
C1514      C1515   1.404       .  A
C1514      C1519   1.478       .  S
C1515      C1516   1.400       .  A
C1515      F1520   1.358       .  S
C1516      C1517   1.409       .  A
C1516      H1521   1.083       .  S
C1517      C1518   1.413       .  A
C1518      F1522   1.357       .  S
C1519      C1524   1.404       .  A
C1519      C1528   1.404       .  A
C1524      C1525   1.397       .  A
C1524      F1529   1.357       .  S
C1525      C1526   1.404       .  A
C1525      H1530   1.082       .  S
C1526      C1527   1.407       .  A
C1527      C1528   1.399       .  A
C1527      F1531   1.357       .  S
C1528      H1532   1.084       .  S
C1533      C1534   1.402   1_455  A
C1533      C1538   1.396       .  A
C1533      H1543   1.083       .  S
C1534      C1535   1.413       .  A
C1534      C1539   1.491   1_655  S
C1535      C1536   1.399       .  A
C1535      F1540   1.357       .  S
C1536      C1537   1.404       .  A
C1536      H1541   1.083       .  S
C1537      C1538   1.416   1_655  A
C1538      F1542   1.358       .  S
C1539      C1544   1.406   1_455  A
C1539      C1548   1.412       .  A
C1544      C1545   1.394       .  A
C1544      F1549   1.357       .  S
C1545      C1546   1.403   1_655  A
C1545      H1550   1.084       .  S
C1546      C1547   1.403       .  A
C1547      C1548   1.402       .  A
C1547      F1551   1.357       .  S
C1548      H1552   1.083       .  S
C1553      C1554   1.402       .  A
C1553      C1558   1.398       .  A
C1553      H1563   1.083       .  S
C1554      C1555   1.408       .  A
C1554      C1559   1.480       .  S
C1555      C1556   1.399       .  A
C1555      F1560   1.357   1_455  S
C1556      C1557   1.402       .  A
C1556      H1561   1.083   1_455  S
C1557      C1558   1.407       .  A
C1558      F1562   1.358       .  S
C1559      C1564   1.400       .  A
C1559      C1568   1.405       .  A
C1564      C1565   1.395       .  A
C1564      F1569   1.358       .  S
C1565      C1566   1.411       .  A
C1565      H1570   1.083       .  S
C1566      C1567   1.412       .  A
C1567      C1568   1.403       .  A
C1567      F1571   1.357       .  S
C1568      H1572   1.083       .  S
C1573      C1574   1.402       .  A
C1573      C1578   1.398   1_455  A
C1573      H1583   1.083   1_455  S
C1574      C1575   1.408       .  A
C1574      C1579   1.484       .  S
C1575      C1576   1.400       .  A
C1575      F1580   1.358       .  S
C1576      C1577   1.406       .  A
C1576      H1581   1.083       .  S
C1577      C1578   1.412   1_455  A
C1578      F1582   1.358       .  S
C1579      C1584   1.408   1_455  A
C1579      C1588   1.405       .  A
C1584      C1585   1.398       .  A
C1584      F1589   1.357       .  S
C1585      C1586   1.400   1_655  A
C1585      H1590   1.084       .  S
C1586      C1587   1.403       .  A
C1587      C1588   1.398       .  A
C1587      F1591   1.358       .  S
C1588      H1592   1.083       .  S
C1593      C1594   1.407       .  A
C1593      C1598   1.400       .  A
C1593      H1603   1.083       .  S
C1594      C1595   1.398       .  A
C1594      C1599   1.475       .  S
C1595      C1596   1.391       .  A
C1595      F1600   1.357       .  S
C1596      C1597   1.412       .  A
C1596      H1601   1.083       .  S
C1597      C1598   1.409       .  A
C1598      F1602   1.358       .  S
C1599      C1604   1.403   1_455  A
C1599      C1608   1.406       .  A
C1604      C1605   1.393       .  A
C1604      F1609   1.358       .  S
C1605      C1606   1.402   1_655  A
C1605      H1610   1.083       .  S
C1606      C1607   1.403       .  A
C1607      C1608   1.399       .  A
C1607      F1611   1.357       .  S
C1608      H1612   1.083       .  S
C1613      C1614   1.408   1_455  A
C1613      C1618   1.398       .  A
C1613      H1623   1.083       .  S
C1614      C1615   1.407       .  A
C1614      C1619   1.485       .  S
C1615      C1616   1.393       .  A
C1615      F1620   1.357       .  S
C1616      C1617   1.402       .  A
C1616      H1621   1.084       .  S
C1617      C1618   1.403   1_655  A
C1618      F1622   1.357       .  S
C1619      C1624   1.404       .  A
C1619      C1628   1.408       .  A
C1624      C1625   1.393       .  A
C1624      F1629   1.358       .  S
C1625      C1626   1.411       .  A
C1625      H1630   1.083   1_655  S
C1626      C1627   1.407       .  A
C1627      C1628   1.399       .  A
C1627      F1631   1.357       .  S
C1628      H1632   1.083       .  S
C1633      C1634   1.405   1_655  A
C1633      C1638   1.399       .  A
C1633      H1643   1.083       .  S
C1634      C1635   1.404       .  A
C1634      C1639   1.478       .  S
C1635      C1636   1.393       .  A
C1635      F1640   1.358       .  S
C1636      C1637   1.404       .  A
C1636      H1641   1.084       .  S
C1637      C1638   1.407   1_455  A
C1638      F1642   1.355       .  S
C1639      C1644   1.401       .  A
C1639      C1648   1.405       .  A
C1644      C1645   1.395       .  A
C1644      F1649   1.357       .  S
C1645      C1646   1.410       .  A
C1645      H1650   1.083       .  S
C1646      C1647   1.410       .  A
C1647      C1648   1.397       .  A
C1647      F1651   1.357       .  S
C1648      H1652   1.083       .  S
C1653      C1654   1.398       .  A
C1653      C1658   1.396       .  A
C1653      H1663   1.083       .  S
C1654      C1655   1.409       .  A
C1654      C1659   1.482       .  S
C1655      C1656   1.400       .  A
C1655      F1660   1.358       .  S
C1656      C1657   1.405       .  A
C1656      H1661   1.083       .  S
C1657      C1658   1.419       .  A
C1658      F1662   1.358       .  S
C1659      C1664   1.411       .  A
C1659      C1668   1.402       .  A
C1664      C1665   1.401       .  A
C1664      F1669   1.357       .  S
C1665      C1666   1.401       .  A
C1665      H1670   1.083       .  S
C1666      C1667   1.403       .  A
C1667      C1668   1.392       .  A
C1667      F1671   1.358       .  S
C1668      H1672   1.083       .  S
C1673      C1674   1.399       .  A
C1673      C1678   1.397       .  A
C1673      H1683   1.083       .  S
C1674      C1675   1.410       .  A
C1674      C1679   1.483       .  S
C1675      C1676   1.398       .  A
C1675      F1680   1.358       .  S
C1676      C1677   1.405       .  A
C1676      H1681   1.083       .  S
C1677      C1678   1.415       .  A
C1678      F1682   1.357       .  S
C1679      C1684   1.411       .  A
C1679      C1688   1.402       .  A
C1684      C1685   1.402       .  A
C1684      F1689   1.357       .  S
C1685      C1686   1.403       .  A
C1685      H1690   1.083       .  S
C1686      C1687   1.402       .  A
C1687      C1688   1.390       .  A
C1687      F1691   1.358       .  S
C1688      H1692   1.083       .  S
C1693      C1694   1.406       .  A
C1693      C1698   1.402       .  A
C1693      H1703   1.083       .  S
C1694      C1695   1.399       .  A
C1694      C1699   1.478       .  S
C1695      C1696   1.394       .  A
C1695      F1700   1.358       .  S
C1696      C1697   1.414       .  A
C1696      H1701   1.083       .  S
C1697      C1698   1.408       .  A
C1698      F1702   1.357       .  S
C1699      C1704   1.403       .  A
C1699      C1708   1.405       .  A
C1704      C1705   1.398       .  A
C1704      F1709   1.358       .  S
C1705      C1706   1.404       .  A
C1705      H1710   1.083       .  S
C1706      C1707   1.403       .  A
C1707      C1708   1.401       .  A
C1707      F1711   1.357       .  S
C1708      H1712   1.083       .  S
C1713      C1714   1.401       .  A
C1713      C1718   1.394       .  A
C1713      H1723   1.083       .  S
C1714      C1715   1.409       .  A
C1714      C1719   1.476       .  S
C1715      C1716   1.400       .  A
C1715      F1720   1.358       .  S
C1716      C1717   1.401       .  A
C1716      H1721   1.083       .  S
C1717      C1718   1.403       .  A
C1718      F1722   1.357       .  S
C1719      C1724   1.408       .  A
C1719      C1728   1.397       .  A
C1724      C1725   1.400       .  A
C1724      F1729   1.358       .  S
C1725      C1726   1.406       .  A
C1725      H1730   1.083       .  S
C1726      C1727   1.415       .  A
C1727      C1728   1.392       .  A
C1727      F1731   1.357       .  S
C1728      H1732   1.084       .  S
C1733      C1734   1.405       .  A
C1733      C1738   1.399       .  A
C1733      H1743   1.083       .  S
C1734      C1735   1.398       .  A
C1734      C1739   1.473       .  S
C1735      C1736   1.395       .  A
C1735      F1740   1.358       .  S
C1736      C1737   1.415       .  A
C1736      H1741   1.083       .  S
C1737      C1738   1.407       .  A
C1738      F1742   1.357       .  S
C1739      C1744   1.408       .  A
C1739      C1748   1.399       .  A
C1744      C1745   1.401       .  A
C1744      F1749   1.358       .  S
C1745      C1746   1.402       .  A
C1745      H1750   1.083       .  S
C1746      C1747   1.404       .  A
C1747      C1748   1.391       .  A
C1747      F1751   1.358       .  S
C1748      H1752   1.083       .  S
C1753      C1754   1.403       .  A
C1753      C1758   1.401       .  A
C1753      H1763   1.083       .  S
C1754      C1755   1.403       .  A
C1754      C1759   1.475       .  S
C1755      C1756   1.398       .  A
C1755      F1760   1.357       .  S
C1756      C1757   1.403       .  A
C1756      H1761   1.084       .  S
C1757      C1758   1.403       .  A
C1758      F1762   1.357       .  S
C1759      C1764   1.405       .  A
C1759      C1768   1.396       .  A
C1764      C1765   1.402       .  A
C1764      F1769   1.357       .  S
C1765      C1766   1.407       .  A
C1765      H1770   1.083       .  S
C1766      C1767   1.416       .  A
C1767      C1768   1.397       .  A
C1767      F1771   1.358       .  S
C1768      H1772   1.084       .  S
C1773      C1774   1.399       .  A
C1773      C1778   1.398       .  A
C1773      H1783   1.084       .  S
C1774      C1775   1.405       .  A
C1774      C1779   1.477       .  S
C1775      C1776   1.399       .  A
C1775      F1780   1.358       .  S
C1776      C1777   1.406       .  A
C1776      H1781   1.083       .  S
C1777      C1778   1.416       .  A
C1778      F1782   1.358       .  S
C1779      C1784   1.408       .  A
C1779      C1788   1.401       .  A
C1784      C1785   1.400       .  A
C1784      F1789   1.357       .  S
C1785      C1786   1.401       .  A
C1785      H1790   1.083       .  S
C1786      C1787   1.406       .  A
C1787      C1788   1.394       .  A
C1787      F1791   1.358       .  S
C1788      H1792   1.083       .  S
C1793      C1794   1.407       .  A
C1793      C1798   1.398       .  A
C1793      H1803   1.083       .  S
C1794      C1795   1.403       .  A
C1794      C1799   1.483       .  S
C1795      C1796   1.396       .  A
C1795      F1800   1.358       .  S
C1796      C1797   1.411       .  A
C1796      H1801   1.083       .  S
C1797      C1798   1.407       .  A
C1798      F1802   1.357       .  S
C1799      C1804   1.410       .  A
C1799      C1808   1.403       .  A
C1804      C1805   1.398       .  A
C1804      F1809   1.357       .  S
C1805      C1806   1.401       .  A
C1805      H1810   1.083       .  S
C1806      C1807   1.406       .  A
C1807      C1808   1.393       .  A
C1807      F1811   1.358       .  S
C1808      H1812   1.083       .  S
C1813      C1814   1.404       .  A
C1813      C1818   1.404       .  A
C1813      H1823   1.083       .  S
C1814      C1815   1.406       .  A
C1814      C1819   1.491       .  S
C1815      C1816   1.401       .  A
C1815      F1820   1.357       .  S
C1816      C1817   1.409       .  A
C1816      H1821   1.083       .  S
C1817      C1818   1.415       .  A
C1818      F1822   1.357       .  S
C1819      C1824   1.407   1_455  A
C1819      C1828   1.405       .  A
C1824      C1825   1.400   1_655  A
C1824      F1829   1.357       .  S
C1825      C1826   1.405       .  A
C1825      H1830   1.081   1_455  S
C1826      C1827   1.413       .  A
C1827      C1828   1.403       .  A
C1827      F1831   1.357       .  S
C1828      H1832   1.083       .  S
C1833      C1834   1.404       .  A
C1833      C1838   1.402   1_455  A
C1833      H1843   1.083   1_455  S
C1834      C1835   1.406       .  A
C1834      C1839   1.488       .  S
C1835      C1836   1.400       .  A
C1835      F1840   1.358       .  S
C1836      C1837   1.408       .  A
C1836      H1841   1.083       .  S
C1837      C1838   1.414   1_455  A
C1838      F1842   1.357       .  S
C1839      C1844   1.409   1_455  A
C1839      C1848   1.405       .  A
C1844      C1845   1.402       .  A
C1844      F1849   1.357       .  S
C1845      C1846   1.404   1_655  A
C1845      H1850   1.082       .  S
C1846      C1847   1.405       .  A
C1847      C1848   1.398       .  A
C1847      F1851   1.357       .  S
C1848      H1852   1.083       .  S
C1853      C1854   1.402       .  A
C1853      C1858   1.401       .  A
C1853      H1863   1.083       .  S
C1854      C1855   1.402       .  A
C1854      C1859   1.479       .  S
C1855      C1856   1.398       .  A
C1855      F1860   1.358       .  S
C1856      C1857   1.411       .  A
C1856      H1861   1.083       .  S
C1857      C1858   1.413       .  A
C1858      F1862   1.357       .  S
C1859      C1864   1.404       .  A
C1859      C1868   1.404   1_655  A
C1864      C1865   1.399       .  A
C1864      F1869   1.357       .  S
C1865      C1866   1.404       .  A
C1865      H1870   1.083       .  S
C1866      C1867   1.405   1_655  A
C1867      C1868   1.400       .  A
C1867      F1871   1.357       .  S
C1868      H1872   1.083       .  S
C1873      C1874   1.406       .  A
C1873      C1878   1.404       .  A
C1873      H1883   1.083       .  S
C1874      C1875   1.398       .  A
C1874      C1879   1.478       .  S
C1875      C1876   1.395       .  A
C1875      F1880   1.358       .  S
C1876      C1877   1.413       .  A
C1876      H1881   1.083   1_655  S
C1877      C1878   1.410       .  A
C1878      F1882   1.357       .  S
C1879      C1884   1.403       .  A
C1879      C1888   1.403   1_655  A
C1884      C1885   1.400       .  A
C1884      F1889   1.358       .  S
C1885      C1886   1.405       .  A
C1885      H1890   1.083       .  S
C1886      C1887   1.405       .  A
C1887      C1888   1.399   1_655  A
C1887      F1891   1.357   1_655  S
C1888      H1892   1.083       .  S
C1893      C1894   1.401       .  A
C1893      C1898   1.397       .  A
C1893      H1903   1.083       .  S
C1894      C1895   1.412   1_655  A
C1894      C1899   1.493       .  S
C1895      C1896   1.404       .  A
C1895      F1900   1.357       .  S
C1896      C1897   1.406       .  A
C1896      H1901   1.083       .  S
C1897      C1898   1.417   1_455  A
C1898      F1902   1.358       .  S
C1899      C1904   1.413       .  A
C1899      C1908   1.405   1_655  A
C1904      C1905   1.401       .  A
C1904      F1909   1.357       .  S
C1905      C1906   1.399       .  A
C1905      H1910   1.083       .  S
C1906      C1907   1.405   1_655  A
C1907      C1908   1.399       .  A
C1907      F1911   1.358       .  S
C1908      H1912   1.083       .  S
C1913      C1914   1.404   1_455  A
C1913      C1918   1.401       .  A
C1913      H1923   1.083       .  S
C1914      C1915   1.407       .  A
C1914      C1919   1.488       .  S
C1915      C1916   1.397       .  A
C1915      F1920   1.357       .  S
C1916      C1917   1.406       .  A
C1916      H1921   1.083       .  S
C1917      C1918   1.413   1_655  A
C1918      F1922   1.358       .  S
C1919      C1924   1.409   1_655  A
C1919      C1928   1.405       .  A
C1924      C1925   1.402       .  A
C1924      F1929   1.357       .  S
C1925      C1926   1.403   1_455  A
C1925      H1930   1.083       .  S
C1926      C1927   1.406       .  A
C1927      C1928   1.399       .  A
C1927      F1931   1.357       .  S
C1928      H1932   1.083       .  S
