geometry optimzed in LAMMPS
_audit_creation_date              2020-11-30 
_audit_creation_method            'lammps2cif' 
_symmetry_space_group_name_H-M    'P1' 
_symmetry_Int_Tables_number       1 
_symmetry_cell_setting            triclinic 
loop_ 
_symmetry_equiv_pos_as_xyz 
  x,y,z 
_cell_length_a                    51.1683302792555 
_cell_length_b                    48.0236260316871 
_cell_length_c                    49.7668025862305 
_cell_angle_alpha                 89.7917644631788 
_cell_angle_beta                  89.71078327368325 
_cell_angle_gamma                 90.59283054240755 
loop_ 
_atom_site_label 
_atom_site_type_symbol 
_atom_site_fract_x 
_atom_site_fract_y 
_atom_site_fract_z 
_atom_site_charge 
N1          N  0.15604679  0.21466012  0.03294027    -0.07300
N2          N  0.17557950  0.20097036  0.04454478    -0.59420
N3          N  0.13497227  0.19798852  0.47352717    -0.06980
N4          N  0.13933661  0.17538538  0.45970891    -0.61550
N5          N  0.15567421  0.21459576  0.47340298    -0.06580
N6          N  0.17504189  0.20247445  0.46011780    -0.59400
N7          N  0.13477386  0.19891321  0.03391832    -0.06260
N8          N  0.13890694  0.17581705  0.04701186    -0.61900
C9          C  0.16412295  0.17688256  0.05366167     0.94870
C10         C  0.16403447  0.17834487  0.45121149     0.94650
N11         N  0.05702697  0.21716152  0.47130214    -0.07490
N12         N  0.04859751  0.21934585  0.44613754    -0.60000
N13         N  0.07569825  0.19916862  0.03578527    -0.05610
N14         N  0.07973481  0.18861719  0.05986123    -0.61250
N15         N  0.05738380  0.21802567  0.03661102    -0.07520
N16         N  0.04877523  0.22068679  0.06166501    -0.60270
N17         N  0.07548129  0.19846648  0.47248515    -0.05250
N18         N  0.07965610  0.18753807  0.44867182    -0.61340
Mn19       Mn  0.10463222  0.19840328  0.00390798     1.18440
C20         C  0.06279170  0.20041661  0.43224685     0.96960
C21         C  0.06298424  0.20215108  0.07598796     0.97620
N22         N  0.15620884  0.28429804  0.47220608    -0.07540
N23         N  0.17604708  0.29932763  0.46221297    -0.63850
N24         N  0.13631843  0.30248093  0.03026410    -0.06340
N25         N  0.14250634  0.32682570  0.04038939    -0.64520
N26         N  0.15642152  0.28541972  0.03122041    -0.07040
N27         N  0.17688735  0.29880639  0.04156278    -0.64110
N28         N  0.13453036  0.29874544  0.46995841    -0.05940
N29         N  0.13878738  0.32208008  0.45715548    -0.64800
Mn30       Mn  0.15722224  0.24967063  0.50262422     1.10660
C31         C  0.16447600  0.32273157  0.45251434     0.98180
C32         C  0.16761534  0.32453398  0.04740629     0.98250
N33         N  0.05741025  0.28140995  0.03476911    -0.07050
N34         N  0.04789037  0.28027400  0.05955301    -0.62430
N35         N  0.07529316  0.29776445  0.46951076    -0.06370
N36         N  0.07752427  0.30799382  0.44490292    -0.59160
N37         N  0.05581496  0.27990127  0.47098041    -0.07680
N38         N  0.04411815  0.27790347  0.44741265    -0.61990
N39         N  0.07618680  0.30017116  0.03328591    -0.06670
N40         N  0.07971932  0.31211198  0.05682253    -0.59180
Mn41       Mn  0.05531515  0.24899758  0.00357259     1.20190
Mn42       Mn  0.10504338  0.29997493  0.50076821     1.10090
Cl43       Cl  0.10616208  0.24931417  0.00301118    -0.87150
C44         C  0.06201041  0.29960485  0.07314935     0.95180
C45         C  0.05779200  0.29564615  0.43139245     0.94980
N46         N  0.44002695  0.22068167  0.03802777    -0.07300
N47         N  0.44869895  0.22164564  0.06316516    -0.59420
N48         N  0.42462456  0.20158090  0.47271321    -0.06980
N49         N  0.42178924  0.19145207  0.44829227    -0.61550
N50         N  0.44403583  0.21959309  0.47341447    -0.06580
N51         N  0.45490512  0.22178215  0.44925077    -0.59400
N52         N  0.42138397  0.20188489  0.03612112    -0.06260
N53         N  0.41718303  0.18964858  0.05946784    -0.61900
C54         C  0.43436977  0.20176725  0.07631383     0.94870
C55         C  0.44068806  0.20420774  0.43377113     0.94650
N56         N  0.34454720  0.21746515  0.47056917    -0.07490
N57         N  0.32564834  0.20454490  0.45701624    -0.60000
N58         N  0.36196794  0.20145334  0.03138935    -0.05610
N59         N  0.35670769  0.17904012  0.04545074    -0.61250
N60         N  0.34154525  0.21799441  0.03019550    -0.07520
N61         N  0.32145737  0.20594874  0.04292550    -0.60270
N62         N  0.36529917  0.20138366  0.47123584    -0.05250
N63         N  0.36150195  0.17860649  0.45749406    -0.61340
Mn64       Mn  0.39384441  0.20130116  0.00288952     1.18440
C65         C  0.33704465  0.18056887  0.44854130     0.96960
C66         C  0.33174832  0.18194750  0.05270560     0.97620
N67         N  0.44384623  0.28246843  0.47110321    -0.07540
N68         N  0.45236400  0.27901888  0.44598685    -0.63850
N69         N  0.42231422  0.30301522  0.03401905    -0.06340
N70         N  0.41829042  0.31610815  0.05676915    -0.64520
N71         N  0.44045979  0.28415035  0.03663859    -0.07040
N72         N  0.44903728  0.28393860  0.06180292    -0.64110
N73         N  0.42592652  0.30175744  0.47133302    -0.05940
N74         N  0.42233666  0.31184560  0.44707541    -0.64800
Mn75       Mn  0.44381424  0.25179328  0.00504435     1.10660
C76         C  0.43865328  0.29765417  0.43114842     0.98180
C77         C  0.43522609  0.30445008  0.07389388     0.98250
N78         N  0.34241251  0.28807826  0.02934659    -0.07050
N79         N  0.32278860  0.30044832  0.04211974    -0.62430
N80         N  0.36728428  0.30218448  0.46909361    -0.06370
N81         N  0.36445234  0.32529906  0.45569685    -0.59160
N82         N  0.34538177  0.28751987  0.46970906    -0.07680
N83         N  0.32670403  0.30218857  0.45781362    -0.61990
N84         N  0.36312575  0.30467139  0.02949906    -0.06670
N85         N  0.35844858  0.32762427  0.04268699    -0.59180
Mn86       Mn  0.34211723  0.25274539  0.99997064     1.20190
Mn87       Mn  0.39521986  0.30299976  0.00111470     1.10090
Cl88       Cl  0.39313560  0.25214641  0.00244910    -0.87150
C89         C  0.33353844  0.32498158  0.05056417     0.95180
C90         C  0.33932448  0.32565829  0.44878950     0.94980
N91         N  0.22358679  0.03552107  0.09863625    -0.07300
N92         N  0.21180290  0.04717251  0.07771382    -0.59420
N93         N  0.28095870  0.05369527  0.12179170    -0.06980
N94         N  0.29367539  0.07695479  0.11731144    -0.61550
N95         N  0.28143633  0.03740005  0.10052784    -0.06580
N96         N  0.29361460  0.05078380  0.08048013    -0.59400
N97         N  0.22233584  0.05250691  0.11939226    -0.06260
N98         N  0.20922538  0.07492922  0.11349025    -0.61900
C99         C  0.20255086  0.07146547  0.08781128     0.94870
C100        C  0.30159297  0.07526489  0.09178509     0.94650
N101        N  0.28023599  0.03680830  0.20249602    -0.07490
N102        N  0.30347759  0.03669073  0.21403291    -0.60000
N103        N  0.21835765  0.05317160  0.18099053    -0.05610
N104        N  0.19520966  0.06479625  0.17817218    -0.61250
N105        N  0.21804338  0.03538263  0.20105168    -0.07520
N106        N  0.19456043  0.03469732  0.21238392    -0.60270
N107        N  0.28031136  0.05473428  0.18255140    -0.05250
N108        N  0.30351071  0.06681872  0.17992249    -0.61340
Mn109      Mn  0.25036449  0.05366604  0.15159880     1.18440
C110        C  0.31771310  0.05580328  0.19995711     0.96960
C111        C  0.18062000  0.05347084  0.19816647     0.97620
N112        N  0.28237417  0.46688296  0.10222278    -0.07540
N113        N  0.29486902  0.45387531  0.08246462    -0.63850
N114        N  0.22366689  0.44907358  0.12112021    -0.06340
N115        N  0.21329906  0.42485272  0.11498718    -0.64520
N116        N  0.22462969  0.46560443  0.09983463    -0.07040
N117        N  0.21534663  0.45194938  0.07866173    -0.64110
N118        N  0.28208229  0.45076457  0.12380150    -0.05940
N119        N  0.29501409  0.42779088  0.11956702    -0.64800
Mn120      Mn  0.25306658  0.00138158  0.09933584     1.10660
C121        C  0.30318333  0.42981475  0.09405304     0.98180
C122        C  0.20816345  0.42660030  0.08867565     0.98250
N123        N  0.21853525  0.47184781  0.20190658    -0.07050
N124        N  0.19444561  0.47440093  0.21118636    -0.62430
N125        N  0.28119915  0.45330075  0.18551780    -0.06370
N126        N  0.30445136  0.44157640  0.18444009    -0.59160
N127        N  0.28072268  0.47253304  0.20416442    -0.07680
N128        N  0.30375895  0.47412455  0.21609207    -0.61990
N129        N  0.21911122  0.45275668  0.18308684    -0.06670
N130        N  0.19547849  0.44204816  0.17940865    -0.59180
Mn131      Mn  0.24944375  0.50406226  0.20393190     1.20190
Mn132      Mn  0.25142877  0.45121319  0.15397960     1.10090
Cl133      Cl  0.25107656  0.50252755  0.15192634    -0.87150
C134        C  0.18016576  0.45561721  0.19718345     0.95180
C135        C  0.31850053  0.45460538  0.20369330     0.94980
N136        N  0.21770549  0.02954411  0.30786531    -0.07300
N137        N  0.19440203  0.02798809  0.29645501    -0.59420
N138        N  0.27918397  0.05140493  0.32602384    -0.06980
N139        N  0.30205467  0.06399519  0.32890943    -0.61550
N140        N  0.28057648  0.03150737  0.30804394    -0.06580
N141        N  0.30482402  0.03004995  0.29867322    -0.59400
N142        N  0.21775535  0.04918598  0.32611799    -0.06260
N143        N  0.19480164  0.06149743  0.32730799    -0.61900
C144        C  0.18031662  0.04823577  0.30861295     0.94870
C145        C  0.31783996  0.05076913  0.31157520     0.94650
N146        N  0.27866473  0.03757731  0.40847498    -0.07490
N147        N  0.29224543  0.05003720  0.42776604    -0.60000
N148        N  0.21942679  0.05140853  0.38784991    -0.05610
N149        N  0.20618521  0.07401773  0.39244679    -0.61250
N150        N  0.22045817  0.03559092  0.40955514    -0.07520
N151        N  0.20829382  0.04827475  0.42970659    -0.60270
N152        N  0.27799194  0.05388592  0.38712571    -0.05250
N153        N  0.29160884  0.07672546  0.39092471    -0.61340
Mn154      Mn  0.24845881  0.05170726  0.35630362     1.18440
C155        C  0.30059713  0.07412533  0.41596893     0.96960
C156        C  0.19929965  0.07214003  0.41834142     0.97620
N157        N  0.28148060  0.46758759  0.30892513    -0.07540
N158        N  0.30458497  0.46820362  0.29675030    -0.63850
N159        N  0.22017968  0.44731766  0.33009582    -0.06340
N160        N  0.19765528  0.43399368  0.33298559    -0.64520
N161        N  0.21923022  0.46516339  0.31008026    -0.07040
N162        N  0.19580784  0.46411114  0.29886766    -0.64110
N163        N  0.28163904  0.44939649  0.32862650    -0.05940
N164        N  0.30462712  0.43727147  0.33018285    -0.64800
Mn165      Mn  0.24969769  0.99849686  0.30711598     1.10660
C166        C  0.31884735  0.44887288  0.31003580     0.98180
C167        C  0.18258606  0.44439153  0.31329051     0.98250
N168        N  0.22241667  0.46636230  0.41219871    -0.07050
N169        N  0.21023861  0.45505090  0.43328062    -0.62430
N170        N  0.28102811  0.45128056  0.39007913    -0.06370
N171        N  0.29468224  0.42915002  0.39555050    -0.59160
N172        N  0.28036632  0.46843104  0.41072885    -0.07680
N173        N  0.29302992  0.45710836  0.43122768    -0.61990
N174        N  0.22257357  0.44847408  0.39211517    -0.06670
N175        N  0.21007748  0.42549530  0.39871330    -0.59180
Mn176      Mn  0.25046315  0.00204786  0.41125651     1.20190
Mn177      Mn  0.25129649  0.44887394  0.35979750     1.10090
Cl178      Cl  0.24988130  0.00025533  0.35883777    -0.87150
C179        C  0.20238075  0.42975177  0.42409903     0.95180
C180        C  0.30223386  0.43292374  0.42089964     0.94980
N181        N  0.02879546  0.16340167  0.22090023    -0.07300
N182        N  0.04181487  0.18434853  0.20932551    -0.59420
N183        N  0.46996939  0.14037116  0.20508372    -0.06980
N184        N  0.45543259  0.14424038  0.18383904    -0.61550
N185        N  0.47000698  0.16253045  0.22068346    -0.06580
N186        N  0.45605372  0.18243851  0.20907184    -0.59400
N187        N  0.02931993  0.14148832  0.20494814    -0.06260
N188        N  0.04333669  0.14678194  0.18330851    -0.61900
C189        C  0.05133705  0.17331007  0.18615223     0.94870
C190        C  0.44660529  0.17027967  0.18630192     0.94650
N191        N  0.46773728  0.05749030  0.22601110    -0.07490
N192        N  0.44417071  0.04582963  0.22724390    -0.60000
N193        N  0.03035305  0.07705815  0.20714459    -0.05610
N194        N  0.05338439  0.07868350  0.19503903    -0.61250
N195        N  0.03037479  0.05775189  0.22589269    -0.07520
N196        N  0.05369167  0.04600669  0.22694497    -0.60270
N197        N  0.46847418  0.07651843  0.20701010    -0.05250
N198        N  0.44561287  0.07797116  0.19483745    -0.61340
Mn199      Mn  0.99960970  0.10840308  0.20566822     1.18440
C200        C  0.43073755  0.05836789  0.20725102     0.96960
C201        C  0.06768742  0.05886000  0.20717528     0.97620
N202        N  0.46987620  0.16454617  0.28793235    -0.07540
N203        N  0.45851479  0.18612805  0.29966689    -0.63850
N204        N  0.02847648  0.14369361  0.30448198    -0.06340
N205        N  0.04295496  0.14861487  0.32555801    -0.64520
N206        N  0.02849438  0.16533044  0.28809692    -0.07040
N207        N  0.04243008  0.18602584  0.29898797    -0.64110
N208        N  0.46890781  0.14298047  0.30443381    -0.05940
N209        N  0.45586116  0.14907250  0.32637207    -0.64800
Mn210      Mn  0.49928127  0.16512569  0.25432333     1.10660
C211        C  0.44925204  0.17588341  0.32346267     0.98180
C212        C  0.05187074  0.17476763  0.32219887     0.98250
N213        N  0.02964131  0.05911253  0.28750030    -0.07050
N214        N  0.05284309  0.04725001  0.28660652    -0.62430
N215        N  0.46808778  0.07893398  0.30563949    -0.06370
N216        N  0.44532888  0.08086430  0.31809988    -0.59160
N217        N  0.46749720  0.05886763  0.28781784    -0.07680
N218        N  0.44406505  0.04685046  0.28775242    -0.61990
N219        N  0.02987026  0.07966092  0.30481551    -0.06670
N220        N  0.05321598  0.08227010  0.31584052    -0.59180
Mn221      Mn  0.99874008  0.05686775  0.25681848     1.20190
Mn222      Mn  0.99884459  0.11087498  0.30514930     1.10090
Cl223      Cl  0.99913318  0.11084539  0.25544975    -0.87150
C224        C  0.06739450  0.06181391  0.30447082     0.95180
C225        C  0.43055578  0.06051645  0.30706935     0.94980
N226        N  0.03212702  0.44542720  0.22367385    -0.07300
N227        N  0.05466333  0.45913694  0.22192545    -0.59420
N228        N  0.46979008  0.42768800  0.20642639    -0.06980
N229        N  0.44655716  0.42634096  0.19503411    -0.61550
N230        N  0.47014686  0.44668466  0.22527649    -0.06580
N231        N  0.44695248  0.45860250  0.22700236    -0.59400
N232        N  0.03100531  0.42624866  0.20502510    -0.06260
N233        N  0.05251525  0.42641679  0.19029702    -0.61900
C234        C  0.06718022  0.44720554  0.20076045     0.94870
C235        C  0.43237336  0.44581203  0.20784798     0.94650
N236        N  0.46793697  0.34149173  0.21834947    -0.07490
N237        N  0.45292282  0.32305568  0.20537932    -0.60000
N238        N  0.02790384  0.36176637  0.20266029    -0.05610
N239        N  0.04138706  0.35679363  0.18071127    -0.61250
N240        N  0.02672489  0.33942208  0.21816035    -0.07520
N241        N  0.03872121  0.31851344  0.20602653    -0.60270
N242        N  0.46844876  0.36490368  0.20454760    -0.05250
N243        N  0.45304728  0.36357996  0.18384427    -0.61340
Mn244      Mn  0.49952066  0.39536123  0.20445464     1.18440
C245        C  0.44328219  0.33767192  0.18393252     0.96960
C246        C  0.04831841  0.33001547  0.18295915     0.97620
N247        N  0.47061016  0.44311377  0.28664293    -0.07540
N248        N  0.44760232  0.45528289  0.28560478    -0.63850
N249        N  0.03138243  0.42125708  0.30401724    -0.06340
N250        N  0.05407560  0.41839324  0.31627386    -0.64520
N251        N  0.03263012  0.44153727  0.28626644    -0.07040
N252        N  0.05639416  0.45265076  0.28598697    -0.64110
N253        N  0.46968448  0.42224645  0.30375557    -0.05940
N254        N  0.44611103  0.41994920  0.31461152    -0.64800
Mn255      Mn  0.50161922  0.44568762  0.25569088     1.10660
C256        C  0.43246433  0.44089421  0.30332182     0.98180
C257        C  0.06952172  0.43824764  0.30507348     0.98250
N258        N  0.02691447  0.33589002  0.28537182    -0.07050
N259        N  0.03711857  0.31372286  0.29736377    -0.62430
N260        N  0.46940466  0.35763772  0.30295304    -0.06370
N261        N  0.45676633  0.35083085  0.32505476    -0.59160
N262        N  0.46901463  0.33678914  0.28572778    -0.07680
N263        N  0.45691817  0.31490830  0.29686205    -0.61990
N264        N  0.02874418  0.35737885  0.30176032    -0.06670
N265        N  0.04135128  0.35071649  0.32367713    -0.59180
Mn266      Mn  0.49759762  0.33730077  0.25169641     1.20190
Mn267      Mn  0.49974323  0.39011260  0.30344333     1.10090
Cl268      Cl  0.49975813  0.39189164  0.25384879    -0.87150
C269        C  0.04671072  0.32362870  0.32103122     0.95180
C270        C  0.44885870  0.32441843  0.32120573     0.94980
C271        C  0.38880356  0.42289850  0.31897252    -0.27500
C272        C  0.40345318  0.44360435  0.30547681    -0.15580
C273        C  0.39006547  0.46583747  0.29322216     0.35050
C274        C  0.36252137  0.46623377  0.29375141    -0.26950
C275        C  0.34781349  0.44560814  0.30729187    -0.16190
C276        C  0.36127716  0.42366030  0.32011385     0.36140
N277        N  0.34705986  0.40214164  0.33427182    -0.90440
H278        H  0.39883780  0.40577290  0.32850576     0.17250
H279        H  0.35250782  0.48348951  0.28449603     0.17240
N280        N  0.40446950  0.48815608  0.28054543    -0.89470
H281        H  0.35985235  0.38797347  0.34308255     0.34620
H282        H  0.33619156  0.39100505  0.32010310     0.39720
H283        H  0.41679457  0.49695411  0.29491130     0.39340
H284        H  0.39194812  0.50403746  0.27469302     0.34230
C285        C  0.11037880  0.43751489  0.33287993    -0.27500
C286        C  0.09847399  0.43838432  0.30764242    -0.15580
C287        C  0.11440105  0.43887199  0.28462574     0.35050
C288        C  0.14174330  0.43968881  0.28671780    -0.26950
C289        C  0.15382055  0.43972851  0.31183194    -0.16190
C290        C  0.13790051  0.43859167  0.33524619     0.36140
N291        N  0.14956785  0.44061937  0.36130038    -0.90440
H292        H  0.09820773  0.43694491  0.35075714     0.17250
H293        H  0.15355106  0.44099143  0.26860417     0.17240
N294        N  0.10264467  0.44009934  0.25889458    -0.89470
H295        H  0.13510833  0.44321616  0.37594232     0.34620
H296        H  0.15856921  0.42160475  0.36520469     0.39720
H297        H  0.11155960  0.42555958  0.24633096     0.39340
H298        H  0.10678939  0.46012489  0.25217218     0.34230
C299        C  0.38990955  0.03657913  0.32314911    -0.27500
C300        C  0.40169017  0.05931270  0.30984699    -0.15580
C301        C  0.38556573  0.08106200  0.30023731     0.35050
C302        C  0.35828630  0.07812203  0.30199456    -0.26950
C303        C  0.34663416  0.05387491  0.31225959    -0.16190
C304        C  0.36247455  0.03385414  0.32481694     0.36140
N305        N  0.35070418  0.01225028  0.34103795    -0.90440
H306        H  0.40214083  0.02116465  0.33264969     0.17250
H307        H  0.34598847  0.09479857  0.29492801     0.17240
N308        N  0.39589105  0.10609767  0.28806494    -0.89470
H309        H  0.36497362  0.99888300  0.34849180     0.34620
H310        H  0.33839262  0.00033887  0.32896249     0.39720
H311        H  0.41610423  0.10565504  0.28555991     0.39340
H312        H  0.39167195  0.12267369  0.30088169     0.34230
C313        C  0.14064473  0.07826480  0.30992390    -0.27500
C314        C  0.15143474  0.05174510  0.30643559    -0.15580
C315        C  0.13416141  0.02875328  0.30374919     0.35050
C316        C  0.10710312  0.03262192  0.30337046    -0.26950
C317        C  0.09627261  0.05903072  0.30675624    -0.16190
C318        C  0.11344843  0.08216833  0.31018448     0.36140
N319        N  0.10402560  0.10993897  0.31331030    -0.90440
H320        H  0.15345874  0.09614875  0.31255173     0.17250
H321        H  0.09438313  0.01461137  0.30095228     0.17240
N322        N  0.14341931  0.00092823  0.30303821    -0.89470
H323        H  0.09273761  0.11064479  0.33082023     0.34620
H324        H  0.09232982  0.11488339  0.29684247     0.39720
H325        H  0.15457880  0.99760880  0.32027259     0.39340
H326        H  0.15516790  0.99870904  0.28604009     0.34230
C327        C  0.36029143  0.43026093  0.19261759    -0.27500
C328        C  0.34764634  0.45210976  0.20599557    -0.15580
C329        C  0.36332314  0.47235222  0.21910646     0.35050
C330        C  0.39078178  0.47031823  0.21850492    -0.26950
C331        C  0.40332977  0.44823513  0.20563602    -0.16190
C332        C  0.38772143  0.42808090  0.19235684     0.36140
N333        N  0.39946104  0.40516435  0.17866589    -0.90440
H334        H  0.34883314  0.41466708  0.18212194     0.17250
H335        H  0.40253367  0.48632661  0.22796459     0.17240
N336        N  0.35144627  0.49545858  0.23232733    -0.89470
H337        H  0.39362369  0.40578863  0.15856812     0.34620
H338        H  0.39221835  0.38668620  0.18718329     0.39720
H339        H  0.34202235  0.50648218  0.21737882     0.39340
H340        H  0.36557240  0.50920434  0.23971866     0.34230
C341        C  0.13825840  0.43339840  0.18215975    -0.27500
C342        C  0.15095914  0.45473215  0.19647922    -0.15580
C343        C  0.13552841  0.47556593  0.20858953     0.35050
C344        C  0.10819736  0.47493641  0.20547789    -0.26950
C345        C  0.09547091  0.45177587  0.19438247    -0.16190
C346        C  0.11075209  0.43136321  0.18133134     0.36140
N347        N  0.09849550  0.40815550  0.16805744    -0.90440
H348        H  0.14982411  0.41763306  0.17229527     0.17250
H349        H  0.09659976  0.49091350  0.21500272     0.17240
N350        N  0.14729139  0.49643224  0.22535336    -0.89470
H351        H  0.11251310  0.39458424  0.16039204     0.34620
H352        H  0.08842295  0.41602518  0.15150453     0.39720
H353        H  0.15529338  0.48613398  0.24182619     0.39340
H354        H  0.13311733  0.50966559  0.23326333     0.34230
C355        C  0.38677628  0.07251107  0.22288036    -0.27500
C356        C  0.40187643  0.05712938  0.20465151    -0.15580
C357        C  0.38915025  0.04288069  0.18347031     0.35050
C358        C  0.36169133  0.04338234  0.18192083    -0.26950
C359        C  0.34663737  0.05785540  0.20089679    -0.16190
C360        C  0.35930392  0.07324048  0.22095808     0.36140
N361        N  0.34419053  0.09057777  0.23838424    -0.90440
H362        H  0.39655954  0.08436874  0.23837274     0.17250
H363        H  0.35196444  0.03176277  0.16616923     0.17240
N364        N  0.40323994  0.02731056  0.16358734    -0.89470
H365        H  0.35647402  0.10266704  0.25040797     0.34620
H366        H  0.33301720  0.07754425  0.25089835     0.39720
H367        H  0.42334091  0.02781435  0.16701788     0.39340
H368        H  0.40022982  0.03691994  0.14498871     0.34230
C369        C  0.14015664  0.07165185  0.21978351    -0.27500
C370        C  0.15173887  0.05565324  0.19957582    -0.15580
C371        C  0.13560444  0.04117923  0.18121001     0.35050
C372        C  0.10815456  0.04218512  0.18410943    -0.26950
C373        C  0.09659564  0.05770772  0.20471145    -0.16190
C374        C  0.11273224  0.07331703  0.22213436     0.36140
N375        N  0.10115101  0.09162428  0.24147542    -0.90440
H376        H  0.15254469  0.08309658  0.23356691     0.17250
H377        H  0.09574469  0.03067524  0.17040110     0.17240
N378        N  0.14719354  0.02451785  0.16046792    -0.89470
H379        H  0.11562673  0.10185355  0.25256049     0.34620
H380        H  0.09037820  0.07938890  0.25497286     0.39720
H381        H  0.15700272  0.03797715  0.14720322     0.39340
H382        H  0.13271862  0.01436292  0.14931207     0.34230
C383        C  0.33358323  0.35962933  0.08570292    -0.27500
C384        C  0.32067929  0.34903279  0.06311544    -0.15580
C385        C  0.30339774  0.36664605  0.04884817     0.35050
C386        C  0.29929547  0.39403211  0.05802939    -0.26950
C387        C  0.31272938  0.40456455  0.08045039    -0.16190
C388        C  0.33036876  0.38704619  0.09413916     0.36140
N389        N  0.34606285  0.39660228  0.11624947    -0.90440
H390        H  0.34792881  0.34694737  0.09589749     0.17250
H391        H  0.28503514  0.40688860  0.04797390     0.17240
N392        N  0.29007102  0.35781488  0.02493016    -0.89470
H393        H  0.33908215  0.38687412  0.13372977     0.34620
H394        H  0.34487156  0.41809440  0.11895359     0.39720
H395        H  0.29401446  0.33712330  0.02030953     0.39340
H396        H  0.29719601  0.36992101  0.00894183     0.34230
C397        C  0.32551888  0.11909629  0.09486055    -0.27500
C398        C  0.31062952  0.10123307  0.07856410    -0.15580
C399        C  0.29913617  0.11200936  0.05503646     0.35050
C400        C  0.30338055  0.14034223  0.04821595    -0.26950
C401        C  0.31817529  0.15804435  0.06492158    -0.16190
C402        C  0.32869128  0.14726752  0.08889810     0.36140
N403        N  0.34358221  0.16420049  0.10723790    -0.90440
H404        H  0.33382210  0.11130424  0.11340983     0.17250
H405        H  0.29629402  0.14826158  0.02920964     0.17240
N406        N  0.28290651  0.09451780  0.03858152    -0.89470
H407        H  0.33403909  0.16346626  0.12585975     0.34620
H408        H  0.34366592  0.18512904  0.10147731     0.39720
H409        H  0.29479317  0.07909407  0.03041455     0.39340
H410        H  0.27551296  0.10586061  0.02238187     0.34230
C411        C  0.34597204  0.37441117  0.43467635    -0.27500
C412        C  0.32800540  0.35307162  0.44181702    -0.15580
C413        C  0.30164624  0.35998625  0.44604302     0.35050
C414        C  0.29399240  0.38798333  0.44298720    -0.26950
C415        C  0.31214751  0.40894967  0.43557995    -0.16190
C416        C  0.33837846  0.40205346  0.43159262     0.36140
N417        N  0.35707492  0.42304451  0.42333179    -0.90440
H418        H  0.36634764  0.36959997  0.43135707     0.17250
H419        H  0.27347476  0.39317936  0.44446202     0.17240
N420        N  0.28279413  0.33877940  0.45297126    -0.89470
H421        H  0.37582501  0.41468639  0.42201146     0.34620
H422        H  0.35225463  0.42951429  0.40391206     0.39720
H423        H  0.28162105  0.32504664  0.43675908     0.39340
H424        H  0.26429348  0.34749588  0.45494257     0.34230
C425        C  0.29641728  0.11453959  0.44594451    -0.27500
C426        C  0.31227387  0.09847674  0.42894911    -0.15580
C427        C  0.33462384  0.11076476  0.41693956     0.35050
C428        C  0.34002502  0.13886716  0.42128819    -0.26950
C429        C  0.32444749  0.15509745  0.43828878    -0.16190
C430        C  0.30246059  0.14278990  0.45099219     0.36140
N431        N  0.28692058  0.15862688  0.46944532    -0.90440
H432        H  0.27868037  0.10539186  0.45426234     0.17250
H433        H  0.35752231  0.14785334  0.41225190     0.17240
N434        N  0.35197937  0.09545579  0.39970778    -0.89470
H435        H  0.27187865  0.14624882  0.47754627     0.34620
H436        H  0.27795359  0.17443971  0.45846017     0.39720
H437        H  0.34679621  0.07439193  0.39889619     0.39340
H438        H  0.37054439  0.09612537  0.40838750     0.34230
C439        C  0.42038551  0.32093587  0.36020881    -0.27500
C440        C  0.43942938  0.30798407  0.34459750    -0.15580
C441        C  0.45492373  0.28718668  0.35652682     0.35050
C442        C  0.45324180  0.28255888  0.38464727    -0.26950
C443        C  0.43715284  0.29916336  0.40101742    -0.16190
C444        C  0.41928419  0.31733075  0.38813505     0.36140
N445        N  0.40090462  0.33345424  0.40331876    -0.90440
H446        H  0.40833240  0.33673375  0.35097534     0.17250
H447        H  0.46578596  0.26730759  0.39393413     0.17240
N448        N  0.47370490  0.27253629  0.34053173    -0.89470
H449        H  0.38744587  0.34306126  0.39064110     0.34620
H450        H  0.41139814  0.34958567  0.41249234     0.39720
H451        H  0.46333203  0.26065237  0.32653828     0.39340
H452        H  0.48401190  0.25847782  0.35244661     0.34230
C453        C  0.43353581  0.29154155  0.12279531    -0.27500
C454        C  0.43579282  0.31215940  0.10265434    -0.15580
C455        C  0.43396668  0.34042551  0.11017052     0.35050
C456        C  0.43092499  0.34708552  0.13718498    -0.26950
C457        C  0.43315069  0.32694578  0.15772058    -0.16190
C458        C  0.43180090  0.29865677  0.15032118     0.36140
N459        N  0.42722542  0.27707620  0.16979566    -0.90440
H460        H  0.43197775  0.26995213  0.11700721     0.17250
H461        H  0.42983346  0.36901074  0.14209470     0.17240
N462        N  0.43624667  0.36317695  0.09126698    -0.89470
H463        H  0.41012991  0.26648493  0.16427644     0.34620
H464        H  0.42320722  0.28549771  0.18864259     0.39720
H465        H  0.44294737  0.35657853  0.07256936     0.39340
H466        H  0.45109696  0.37649082  0.09804778     0.34230
C467        C  0.46701059  0.20086387  0.39203526    -0.27500
C468        C  0.44237413  0.20287184  0.40402498    -0.15580
C469        C  0.41985414  0.20219245  0.38738594     0.35050
C470        C  0.42245196  0.19707649  0.35973153    -0.26950
C471        C  0.44702954  0.19241487  0.34829982    -0.16190
C472        C  0.46947154  0.19485912  0.36454262     0.36140
N473        N  0.49447874  0.18789905  0.35351983    -0.90440
H474        H  0.48429721  0.20170426  0.40452480     0.17250
H475        H  0.40506486  0.19454149  0.34760186     0.17240
N476        N  0.39408984  0.20619851  0.39795158    -0.89470
H477        H  0.50871070  0.18845860  0.36844142     0.34620
H478        H  0.49917741  0.20300076  0.33910183     0.39720
H479        H  0.39387291  0.22489657  0.40864901     0.39340
H480        H  0.38945840  0.18975632  0.41093193     0.34230
C481        C  0.42132113  0.16773909  0.14467275    -0.27500
C482        C  0.43642031  0.18424254  0.16193852    -0.15580
C483        C  0.44801646  0.20880326  0.15180487     0.35050
C484        C  0.44753315  0.21419606  0.12379630    -0.26950
C485        C  0.43430006  0.19620344  0.10599462    -0.16190
C486        C  0.42024563  0.17314691  0.11697602     0.36140
N487        N  0.40612884  0.15416273  0.09994010    -0.90440
H488        H  0.41224093  0.14886947  0.15251092     0.17250
H489        H  0.45829022  0.23190910  0.11579707     0.17240
N490        N  0.46170722  0.22707643  0.16972441    -0.89470
H491        H  0.39612433  0.13908381  0.11132066     0.34620
H492        H  0.41988687  0.14346184  0.08843012     0.39720
H493        H  0.44874530  0.23285106  0.18494325     0.39340
H494        H  0.46718508  0.24533769  0.15963047     0.34230
C495        C  0.16032482  0.36875922  0.43244853    -0.27500
C496        C  0.17650768  0.35014465  0.44631034    -0.15580
C497        C  0.19932523  0.36062392  0.45876582     0.35050
C498        C  0.20691349  0.38865210  0.45400016    -0.26950
C499        C  0.19069412  0.40669046  0.43940653    -0.16190
C500        C  0.16645373  0.39699046  0.43038466     0.36140
N501        N  0.14857589  0.41589775  0.41801307    -0.90440
H502        H  0.14205872  0.36141420  0.42393550     0.17250
H503        H  0.22576886  0.39615344  0.46084230     0.17240
N504        N  0.21424412  0.34326423  0.47641781    -0.89470
H505        H  0.13143345  0.40550364  0.41230581     0.34620
H506        H  0.14317626  0.43047537  0.43251657     0.39720
H507        H  0.20220170  0.33789452  0.49270425     0.39340
H508        H  0.22976379  0.35467451  0.48460341     0.34230
C509        C  0.17010247  0.11108249  0.41597112    -0.27500
C510        C  0.18880566  0.09718624  0.43143250    -0.15580
C511        C  0.20196529  0.11212416  0.45206851     0.35050
C512        C  0.19567630  0.14024454  0.45646257    -0.26950
C513        C  0.17731377  0.15393628  0.44037465    -0.16190
C514        C  0.16505576  0.13926575  0.41936153     0.36140
N515        N  0.14711716  0.15233393  0.40117017    -0.90440
H516        H  0.16056304  0.10032200  0.39950934     0.17250
H517        H  0.20447457  0.15115692  0.47320811     0.17240
N518        N  0.22203684  0.10012432  0.46843635    -0.89470
H519        H  0.15468206  0.15024660  0.38173114     0.34620
H520        H  0.14600298  0.17374100  0.40450437     0.39720
H521        H  0.22499426  0.07925742  0.46397331     0.39340
H522        H  0.21559477  0.10074850  0.98840381     0.34230
C523        C  0.17615607  0.37507016  0.04148019    -0.27500
C524        C  0.18325803  0.34969832  0.05373625    -0.15580
C525        C  0.20243906  0.34981809  0.07374625     0.35050
C526        C  0.21190721  0.37552156  0.08320976    -0.26950
C527        C  0.20248417  0.40102916  0.07309856    -0.16190
C528        C  0.18576418  0.40078922  0.05083663     0.36140
N529        N  0.17724074  0.42646977  0.03904197    -0.90440
H530        H  0.16207603  0.37489478  0.02528226     0.17250
H531        H  0.22571521  0.37562453  0.09964754     0.17240
N532        N  0.21109551  0.32412106  0.08542649    -0.89470
H533        H  0.16418229  0.42253879  0.52337261     0.34620
H534        H  0.19361290  0.43613019  0.03030361     0.39720
H535        H  0.19521372  0.31508842  0.09562526     0.39340
H536        H  0.22549860  0.32793624  0.09982114     0.34230
C537        C  0.15962565  0.13160372  0.07591371    -0.27500
C538        C  0.17643786  0.15063019  0.06266242    -0.15580
C539        C  0.20126324  0.14150824  0.05410283     0.35050
C540        C  0.20879691  0.11383506  0.05986154    -0.26950
C541        C  0.19166067  0.09512697  0.07315430    -0.16190
C542        C  0.16678852  0.10414736  0.08099877     0.36140
N543        N  0.14898347  0.08542089  0.09468664    -0.90440
H544        H  0.14032376  0.13809608  0.08210694     0.17250
H545        H  0.22844227  0.10719369  0.05505612     0.17240
N546        N  0.21862420  0.16007128  0.03979280    -0.89470
H547        H  0.13096323  0.09493267  0.09797888     0.34620
H548        H  0.15658024  0.08118631  0.11370322     0.39720
H549        H  0.21000720  0.16460175  0.02131366     0.39340
H550        H  0.23623735  0.15015255  0.03542820     0.34230
C551        C  0.07589285  0.29554146  0.38458181    -0.27500
C552        C  0.05424810  0.29789398  0.40196912    -0.15580
C553        C  0.02962488  0.30393875  0.39126310     0.35050
C554        C  0.02711279  0.30820782  0.36346785    -0.26950
C555        C  0.04889955  0.30738663  0.34613461    -0.16190
C556        C  0.07345524  0.30046318  0.35670601     0.36140
N557        N  0.09600025  0.30026368  0.33940594    -0.90440
H558        H  0.09487748  0.29086789  0.39291953     0.17250
H559        H  0.00850074  0.31495505  0.35558810     0.17240
N560        N  0.00799984  0.30892212  0.40903757    -0.89470
H561        H  0.11270291  0.29521880  0.35034143     0.34620
H562        H  0.09320566  0.28432799  0.32542136     0.39720
H563        H  0.00203858  0.28974960  0.41707920     0.39340
H564        H  0.99224779  0.31711178  0.39847696     0.34230
C565        C  0.04005714  0.29213156  0.11763634    -0.27500
C566        C  0.06113951  0.30343489  0.10286586    -0.15580
C567        C  0.08076226  0.31868187  0.11669587     0.35050
C568        C  0.07754124  0.32428415  0.14420642    -0.26950
C569        C  0.05550428  0.31476770  0.15841692    -0.16190
C570        C  0.03675460  0.29807045  0.14514927     0.36140
N571        N  0.01341549  0.28907042  0.15902954    -0.90440
H572        H  0.02521684  0.28002672  0.10734714     0.17250
H573        H  0.09154742  0.33766331  0.15431126     0.17240
N574        N  0.10352798  0.32918900  0.10276991    -0.89470
H575        H  0.00137857  0.27770517  0.14609486     0.34620
H576        H  0.00281467  0.30679584  0.16414067     0.39720
H577        H  0.11458265  0.31203588  0.09690408     0.39340
H578        H  0.11537482  0.34088086  0.11565850     0.34230
C579        C  0.07769328  0.17132839  0.36285593    -0.27500
C580        C  0.06368229  0.18898166  0.34583251    -0.15400
C581        C  0.05345079  0.21373210  0.35666523     0.35050
C582        C  0.05362256  0.21767312  0.38495874    -0.26950
C583        C  0.06398435  0.19731440  0.40233808    -0.16190
C584        C  0.07679190  0.17420317  0.39081866     0.36140
N585        N  0.08726531  0.15247763  0.40746027    -0.90440
H586        H  0.08625421  0.15271625  0.35452351     0.17250
H587        H  0.04472530  0.23604007  0.39344704     0.17240
N588        N  0.04102507  0.23345733  0.33932374    -0.89470
H589        H  0.09591690  0.13700136  0.39578645     0.34620
H590        H  0.07154822  0.14283271  0.41741788     0.39720
H591        H  0.05543817  0.24196349  0.32670245     0.39340
H592        H  0.03343974  0.24984227  0.35057137     0.34230
C593        C  0.08072269  0.17981467  0.14726580    -0.27500
C594        C  0.05906544  0.18911244  0.16180917    -0.15580
C595        C  0.04078381  0.20623449  0.14885037     0.35050
C596        C  0.04312453  0.21152774  0.12105042    -0.26950
C597        C  0.06338838  0.19988286  0.10590743    -0.16190
C598        C  0.08347657  0.18553921  0.11964187     0.36140
N599        N  0.10631375  0.17619554  0.10553658    -0.90440
H600        H  0.09476930  0.16658194  0.15719084     0.17250
H601        H  0.02816612  0.22338093  0.11093466     0.17240
N602        N  0.01875114  0.21644623  0.16348800    -0.89470
H603        H  0.11877883  0.16557093  0.11852448     0.34620
H604        H  0.11662445  0.19392161  0.09907141     0.39720
H605        H  0.00682629  0.19933060  0.16835845     0.39340
H606        H  0.00789293  0.22925977  0.15093712     0.34230
N607        N  0.15605155  0.21465513  0.53294649    -0.07300
N608        N  0.17558320  0.20096616  0.54455323    -0.59420
N609        N  0.13496514  0.19800737  0.97351726    -0.06980
N610        N  0.13933095  0.17541237  0.95968705    -0.61550
N611        N  0.15566380  0.21461896  0.97339523    -0.06580
N612        N  0.17503080  0.20250978  0.96009975    -0.59400
N613        N  0.13477750  0.19890993  0.53392670    -0.06260
N614        N  0.13890904  0.17581584  0.54702412    -0.61900
C615        C  0.16412514  0.17688092  0.55367377     0.94870
C616        C  0.16402637  0.17838299  0.95118434     0.94650
N617        N  0.05701972  0.21716855  0.97129994    -0.07490
N618        N  0.04858999  0.21935393  0.94613545    -0.60000
N619        N  0.07570218  0.19916775  0.53578962    -0.05610
N620        N  0.07973700  0.18861807  0.55986655    -0.61250
N621        N  0.05738876  0.21802586  0.53661282    -0.07520
N622        N  0.04877910  0.22068976  0.56166612    -0.60270
N623        N  0.07547474  0.19847432  0.97248154    -0.05250
N624        N  0.07964962  0.18754728  0.94866782    -0.61340
Mn625      Mn  0.10463733  0.19839616  0.50391431     1.18440
C626        C  0.06278487  0.20042595  0.93224368     0.96960
C627        C  0.06298650  0.20215443  0.57599123     0.97620
N628        N  0.15619673  0.28431280  0.97221030    -0.07540
N629        N  0.17603422  0.29934063  0.96221376    -0.63850
N630        N  0.13633005  0.30247476  0.53025717    -0.06340
N631        N  0.14251753  0.32682038  0.54038080    -0.64520
N632        N  0.15643303  0.28541364  0.53121514    -0.07040
N633        N  0.17689861  0.29880132  0.54155721    -0.64110
N634        N  0.13451854  0.29876074  0.96996529    -0.05940
N635        N  0.13877479  0.32209554  0.95716237    -0.64800
Mn636      Mn  0.15721241  0.24968277  0.00262398     1.10660
C637        C  0.16446282  0.32274504  0.95251707     0.98180
C638        C  0.16762630  0.32452950  0.54739861     0.98250
N639        N  0.05742006  0.28140920  0.53476472    -0.07050
N640        N  0.04789854  0.28027655  0.55954803    -0.62430
N641        N  0.07528161  0.29777349  0.96951614    -0.06370
N642        N  0.07751341  0.30800361  0.94490860    -0.59160
N643        N  0.05580465  0.27990849  0.97098411    -0.07680
N644        N  0.04410943  0.27791046  0.94741548    -0.61990
N645        N  0.07619852  0.30016819  0.53328096    -0.06670
N646        N  0.07973084  0.31211065  0.55681703    -0.59180
Mn647      Mn  0.05532353  0.24899392  0.50357145     1.20190
Mn648      Mn  0.10503154  0.29998352  0.00077423     1.10090
Cl649      Cl  0.10617124  0.24930625  0.50301012    -0.87150
C650        C  0.06201948  0.29960701  0.57314384     0.95180
C651        C  0.05778284  0.29565473  0.93139652     0.94980
N652        N  0.44002737  0.22068562  0.53802903    -0.07300
N653        N  0.44869923  0.22165108  0.56316651    -0.59420
N654        N  0.42462212  0.20158274  0.97271127    -0.06980
N655        N  0.42178691  0.19145487  0.94828997    -0.61550
N656        N  0.44403503  0.21959283  0.97341387    -0.06580
N657        N  0.45490566  0.22178138  0.94925081    -0.59400
N658        N  0.42138572  0.20188743  0.53612298    -0.06260
N659        N  0.41718559  0.18965146  0.55946989    -0.61900
C660        C  0.43437133  0.20177187  0.57631567     0.94870
C661        C  0.44068758  0.20420898  0.93377012     0.94650
N662        N  0.34454903  0.21748290  0.97056648    -0.07490
N663        N  0.32565140  0.20457702  0.95700030    -0.60000
N664        N  0.36196983  0.20145071  0.53139161    -0.05610
N665        N  0.35671144  0.17903886  0.54545573    -0.61250
N666        N  0.34154572  0.21798971  0.53019625    -0.07520
N667        N  0.32145890  0.20594401  0.54292772    -0.60270
N668        N  0.36529609  0.20139444  0.97123372    -0.05250
N669        N  0.36149681  0.17862482  0.95748076    -0.61340
Mn670      Mn  0.39384682  0.20129874  0.50289157     1.18440
C671        C  0.33704365  0.18060183  0.94851887     0.96960
C672        C  0.33175187  0.18194516  0.55271058     0.97620
N673        N  0.44384982  0.28246827  0.97110525    -0.07540
N674        N  0.45236600  0.27901795  0.94598843    -0.63850
N675        N  0.42230638  0.30301597  0.53401593    -0.06340
N676        N  0.41828098  0.31610877  0.55676595    -0.64520
N677        N  0.44045419  0.28415356  0.53663597    -0.07040
N678        N  0.44903161  0.28394339  0.56180027    -0.64110
N679        N  0.42593182  0.30175920  0.97133606    -0.05940
N680        N  0.42234160  0.31184762  0.94707851    -0.64800
Mn681      Mn  0.44381215  0.25179527  0.50504351     1.10660
C682        C  0.43865620  0.29765448  0.93115062     0.98180
C683        C  0.43521807  0.30445314  0.57389096     0.98250
N684        N  0.34240538  0.28807312  0.52933988    -0.07050
N685        N  0.32278071  0.30044310  0.54211209    -0.62430
N686        N  0.36728935  0.30219507  0.96910085    -0.06370
N687        N  0.36445825  0.32530954  0.95570364    -0.59160
N688        N  0.34538695  0.28753054  0.96971494    -0.07680
N689        N  0.32671016  0.30219772  0.95781660    -0.61990
N690        N  0.36311782  0.30466732  0.52949189    -0.06670
N691        N  0.35843945  0.32762086  0.54267827    -0.59180
Mn692      Mn  0.34211374  0.25273590  0.49996768     1.20190
Mn693      Mn  0.39521316  0.30299570  0.50110968     1.10090
Cl694      Cl  0.39313293  0.25214297  0.50244690    -0.87150
C695        C  0.33352934  0.32497761  0.55055519     0.95180
C696        C  0.33933109  0.32566721  0.94879309     0.94980
N697        N  0.22359127  0.03552334  0.59864376    -0.07300
N698        N  0.21180483  0.04717281  0.57772207    -0.59420
N699        N  0.28096419  0.05369556  0.62180034    -0.06980
N700        N  0.29368190  0.07695447  0.61732004    -0.61550
N701        N  0.28144114  0.03740050  0.60053638    -0.06580
N702        N  0.29361998  0.05078348  0.58048871    -0.59400
N703        N  0.22234116  0.05250964  0.61939936    -0.06260
N704        N  0.20922884  0.07493075  0.61349795    -0.61900
C705        C  0.20255213  0.07146518  0.58781976     0.94870
C706        C  0.30159937  0.07526404  0.59179362     0.94650
N707        N  0.28023696  0.03680511  0.70250418    -0.07490
N708        N  0.30347841  0.03668344  0.71404108    -0.60000
N709        N  0.21836101  0.05317405  0.68099680    -0.05610
N710        N  0.19521396  0.06480053  0.67817745    -0.61250
N711        N  0.21804426  0.03538367  0.70105678    -0.07520
N712        N  0.19456043  0.03469910  0.71238712    -0.60270
N713        N  0.28031459  0.05473242  0.68256062    -0.05250
N714        N  0.30351533  0.06681407  0.67993290    -0.61340
Mn715      Mn  0.25036902  0.05366740  0.65160659     1.18440
C716        C  0.31771619  0.05579509  0.69996692     0.96960
C717        C  0.18062220  0.05347469  0.69816986     0.97620
N718        N  0.28237262  0.46688322  0.60221589    -0.07540
N719        N  0.29486491  0.45387377  0.58245699    -0.63850
N720        N  0.22366568  0.44907562  0.62111440    -0.06340
N721        N  0.21329901  0.42485418  0.61498137    -0.64520
N722        N  0.22462879  0.46560615  0.59982850    -0.07040
N723        N  0.21534745  0.45194985  0.57865544    -0.64110
N724        N  0.28208104  0.45076518  0.62379490    -0.05940
N725        N  0.29501065  0.42779017  0.61955981    -0.64800
Mn726      Mn  0.25306999  0.00138439  0.59934270     1.10660
C727        C  0.30317810  0.42981253  0.59404515     0.98180
C728        C  0.20816475  0.42660058  0.58866951     0.98250
N729        N  0.21853521  0.47184896  0.70190137    -0.07050
N730        N  0.19444580  0.47440193  0.71118183    -0.62430
N731        N  0.28119910  0.45330176  0.68551163    -0.06370
N732        N  0.30445134  0.44157739  0.68443394    -0.59160
N733        N  0.28072249  0.47253352  0.70415877    -0.07680
N734        N  0.30375858  0.47412462  0.71608680    -0.61990
N735        N  0.21911076  0.45275823  0.68308126    -0.06670
N736        N  0.19547793  0.44204978  0.67940350    -0.59180
Mn737      Mn  0.24944389  0.50406292  0.70392675     1.20190
Mn738      Mn  0.25142807  0.45121474  0.65397359     1.10090
Cl739      Cl  0.25107644  0.50252894  0.65192079    -0.87150
C740        C  0.18016562  0.45561850  0.69717895     0.95180
C741        C  0.31850030  0.45460581  0.70368776     0.94980
N742        N  0.21769916  0.02952396  0.80790755    -0.07300
N743        N  0.19439659  0.02795435  0.79649619    -0.59420
N744        N  0.27919064  0.05140367  0.82603467    -0.06980
N745        N  0.30205882  0.06400183  0.82891306    -0.61550
N746        N  0.28059175  0.03147714  0.80809757    -0.06580
N747        N  0.30484138  0.03000215  0.79873647    -0.59400
N748        N  0.21775192  0.04919147  0.82612428    -0.06260
N749        N  0.19480279  0.06151303  0.82729906    -0.61900
C750        C  0.18031516  0.04822674  0.80862238     0.94870
C751        C  0.31785195  0.05074513  0.81160799     0.94650
N752        N  0.27866648  0.03760205  0.90849944    -0.07490
N753        N  0.29225776  0.05008098  0.92777080    -0.60000
N754        N  0.21944252  0.05142456  0.88786918    -0.05610
N755        N  0.20619449  0.07403307  0.89245008    -0.61250
N756        N  0.22047983  0.03562443  0.90959556    -0.07520
N757        N  0.20830986  0.04832488  0.92973272    -0.60270
N758        N  0.27798768  0.05389271  0.88712926    -0.05250
N759        N  0.29161244  0.07673166  0.89090479    -0.61340
Mn760      Mn  0.24845688  0.05170936  0.85627546     1.18440
C761        C  0.30060897  0.07415503  0.91594819     0.96960
C762        C  0.19931170  0.07217729  0.91834718     0.97620
N763        N  0.28148097  0.46758750  0.80892041    -0.07540
N764        N  0.30458557  0.46820381  0.79674605    -0.63850
N765        N  0.22018026  0.44731732  0.83009102    -0.06340
N766        N  0.19765590  0.43399332  0.83298088    -0.64520
N767        N  0.21923062  0.46516340  0.81007574    -0.07040
N768        N  0.19580812  0.46411134  0.79886340    -0.64110
N769        N  0.28163912  0.44939590  0.82862139    -0.05940
N770        N  0.30462713  0.43727089  0.83017794    -0.64800
Mn771      Mn  0.24970236  0.99849926  0.80723538     1.10660
C772        C  0.31884770  0.44887276  0.81003145     0.98180
C773        C  0.18258653  0.44439148  0.81328611     0.98250
N774        N  0.22241752  0.46636373  0.91219279    -0.07050
N775        N  0.21023658  0.45505567  0.93327430    -0.62430
N776        N  0.28102905  0.45128037  0.89007379    -0.06370
N777        N  0.29468542  0.42915142  0.89554504    -0.59160
N778        N  0.28036789  0.46843185  0.91072264    -0.07680
N779        N  0.29303428  0.45711191  0.93122085    -0.61990
N780        N  0.22257419  0.44847441  0.89211031    -0.06670
N781        N  0.21007533  0.42549745  0.89870884    -0.59180
Mn782      Mn  0.25047673  0.00205251  0.91136424     1.20190
Mn783      Mn  0.25129703  0.44887328  0.85979252     1.10090
Cl784      Cl  0.24982814  0.00026422  0.85914395    -0.87150
C785        C  0.20237683  0.42975710  0.92409360     0.95180
C786        C  0.30223927  0.43292774  0.92089320     0.94980
N787        N  0.02879182  0.16340938  0.72090164    -0.07300
N788        N  0.04181136  0.18435641  0.70932750    -0.59420
N789        N  0.46996995  0.14037199  0.70508460    -0.06980
N790        N  0.45543311  0.14424195  0.68384005    -0.61550
N791        N  0.47000841  0.16253128  0.72068436    -0.06580
N792        N  0.45605571  0.18243994  0.70907301    -0.59400
N793        N  0.02931796  0.14149569  0.70495008    -0.06260
N794        N  0.04333588  0.14678934  0.68331126    -0.61900
C795        C  0.05133530  0.17331780  0.68615512     0.94870
C796        C  0.44660672  0.17028164  0.68630314     0.94650
N797        N  0.46774138  0.05748921  0.72601177    -0.07490
N798        N  0.44417617  0.04582557  0.72724486    -0.60000
N799        N  0.03035504  0.07706568  0.70714767    -0.05610
N800        N  0.05338586  0.07869108  0.69504101    -0.61250
N801        N  0.03037787  0.05776009  0.72589636    -0.07520
N802        N  0.05369502  0.04601534  0.72694794    -0.60270
N803        N  0.46847584  0.07651830  0.70701157    -0.05250
N804        N  0.44561376  0.07796922  0.69484017    -0.61340
Mn805      Mn  0.99960974  0.10840841  0.70567026     1.18440
C806        C  0.43074099  0.05836328  0.70725321     0.96960
C807        C  0.06768974  0.05886817  0.70717711     0.97620
N808        N  0.46987938  0.16454585  0.78793253    -0.07540
N809        N  0.45851728  0.18612724  0.79966712    -0.63850
N810        N  0.02847269  0.14370521  0.80448284    -0.06340
N811        N  0.04295193  0.14862780  0.82555799    -0.64520
N812        N  0.02848963  0.16534108  0.78809674    -0.07040
N813        N  0.04242547  0.18603732  0.79898596    -0.64110
N814        N  0.46891207  0.14298012  0.80443396    -0.05940
N815        N  0.45586543  0.14907156  0.82637235    -0.64800
Mn816      Mn  0.49928357  0.16512651  0.75432313     1.10660
C817        C  0.44925534  0.17588222  0.82346302     0.98180
C818        C  0.05186722  0.17478049  0.82219694     0.98250
N819        N  0.02964325  0.05912410  0.78750393    -0.07050
N820        N  0.05284518  0.04726246  0.78661019    -0.62430
N821        N  0.46809474  0.07893375  0.80564105    -0.06370
N822        N  0.44533801  0.08086110  0.81810604    -0.59160
N823        N  0.46750325  0.05886765  0.78781921    -0.07680
N824        N  0.44407228  0.04684773  0.78775802    -0.61990
N825        N  0.02987211  0.07967405  0.80481748    -0.06670
N826        N  0.05321848  0.08228593  0.81584087    -0.59180
Mn827      Mn  0.99874286  0.05687506  0.75682214     1.20190
Mn828      Mn  0.99884335  0.11088431  0.80515092     1.10090
Cl829      Cl  0.99913221  0.11085257  0.75545159    -0.87150
C830        C  0.06739668  0.06182887  0.80447221     0.95180
C831        C  0.43056532  0.06051133  0.80707844     0.94980
N832        N  0.03212705  0.44542816  0.72367232    -0.07300
N833        N  0.05466333  0.45913797  0.72192378    -0.59420
N834        N  0.46979002  0.42768738  0.70642516    -0.06980
N835        N  0.44655719  0.42634035  0.69503265    -0.61550
N836        N  0.47014662  0.44668401  0.72527530    -0.06580
N837        N  0.44695216  0.45860180  0.72700098    -0.59400
N838        N  0.03100521  0.42624973  0.70502346    -0.06260
N839        N  0.05251501  0.42641803  0.69029518    -0.61900
C840        C  0.06718005  0.44720674  0.70075858     0.94870
C841        C  0.43237321  0.44581135  0.70784639     0.94650
N842        N  0.46793583  0.34149130  0.71834809    -0.07490
N843        N  0.45292130  0.32305568  0.70537769    -0.60000
N844        N  0.02790452  0.36176765  0.70265787    -0.05610
N845        N  0.04138732  0.35679621  0.68070829    -0.61250
N846        N  0.02672632  0.33942275  0.71815721    -0.07520
N847        N  0.03872267  0.31851484  0.70602197    -0.60270
N848        N  0.46844855  0.36490311  0.70454597    -0.05250
N849        N  0.45304755  0.36357973  0.68384223    -0.61340
Mn850      Mn  0.49952054  0.39536045  0.70445372     1.18440
C851        C  0.44328150  0.33767213  0.68393052     0.96960
C852        C  0.04831920  0.33001816  0.68295470     0.97620
N853        N  0.47061037  0.44311375  0.78664186    -0.07540
N854        N  0.44760270  0.45528316  0.78560363    -0.63850
N855        N  0.03138319  0.42125798  0.80401567    -0.06340
N856        N  0.05407641  0.41839429  0.81627218    -0.64520
N857        N  0.03263067  0.44153813  0.78626485    -0.07040
N858        N  0.05639468  0.45265172  0.78598516    -0.64110
N859        N  0.46968448  0.42224654  0.80375461    -0.05940
N860        N  0.44611103  0.41994963  0.81461055    -0.64800
Mn861      Mn  0.50161915  0.44568705  0.75568976     1.10660
C862        C  0.43246458  0.44089476  0.80332072     0.98180
C863        C  0.06952234  0.43824876  0.80507170     0.98250
N864        N  0.02691653  0.33589051  0.78537078    -0.07050
N865        N  0.03711920  0.31372349  0.79736446    -0.62430
N866        N  0.46940378  0.35763775  0.80295269    -0.06370
N867        N  0.45676618  0.35083114  0.82505494    -0.59160
N868        N  0.46901342  0.33678885  0.78572774    -0.07680
N869        N  0.45691759  0.31490806  0.79686294    -0.61990
N870        N  0.02874644  0.35738005  0.80175845    -0.06670
N871        N  0.04135281  0.35071835  0.82367590    -0.59180
Mn872      Mn  0.49759629  0.33730004  0.75169583     1.20190
Mn873      Mn  0.49974278  0.39011226  0.80344247     1.10090
Cl874      Cl  0.49975754  0.39189099  0.75384793    -0.87150
C875        C  0.04671109  0.32363016  0.82103179     0.95180
C876        C  0.44885876  0.32441853  0.82120677     0.94980
C877        C  0.38880367  0.42289902  0.81897052    -0.27500
C878        C  0.40345349  0.44360493  0.80547518    -0.15580
C879        C  0.39006604  0.46583798  0.79322012     0.35050
C880        C  0.36252197  0.46623413  0.79374857    -0.26950
C881        C  0.34781386  0.44560829  0.80728843    -0.16190
C882        C  0.36127727  0.42366058  0.82011092     0.36140
N883        N  0.34705974  0.40214183  0.83426851    -0.90440
H884        H  0.39883775  0.40577352  0.82850409     0.17250
H885        H  0.35250858  0.48348986  0.78449302     0.17240
N886        N  0.40447031  0.48815663  0.78054371    -0.89470
H887        H  0.35985207  0.38797387  0.84307981     0.34620
H888        H  0.33619204  0.39100502  0.82009946     0.39720
H889        H  0.41679498  0.49695474  0.79490990     0.39340
H890        H  0.39194905  0.50403792  0.77469081     0.34230
C891        C  0.11037974  0.43751883  0.83287747    -0.27500
C892        C  0.09847455  0.43838508  0.80764008    -0.15580
C893        C  0.11440109  0.43886909  0.78462299     0.35050
C894        C  0.14174338  0.43968643  0.78671442    -0.26950
C895        C  0.15382103  0.43972896  0.81182836    -0.16190
C896        C  0.13790148  0.43859525  0.83524306     0.36140
N897        N  0.14956941  0.44062622  0.86129676    -0.90440
H898        H  0.09820900  0.43695151  0.85075496     0.17250
H899        H  0.15355083  0.44098668  0.76860044     0.17240
N900        N  0.10264410  0.44009168  0.75889187    -0.89470
H901        H  0.13511029  0.44322621  0.87593852     0.34620
H902        H  0.15856984  0.42161165  0.86520369     0.39720
H903        H  0.11155876  0.42554975  0.74633042     0.39340
H904        H  0.10678888  0.46011584  0.75216596     0.34230
C905        C  0.38992611  0.03657989  0.82318533    -0.27500
C906        C  0.40170055  0.05930417  0.80986278    -0.15580
C907        C  0.38557120  0.08104282  0.80024004     0.35050
C908        C  0.35829243  0.07809827  0.80200204    -0.26950
C909        C  0.34664575  0.05385855  0.81229033    -0.16190
C910        C  0.36249176  0.03385120  0.82486066     0.36140
N911        N  0.35072834  0.01225811  0.84110042    -0.90440
H912        H  0.40216189  0.02117452  0.83269369     0.17250
H913        H  0.34599088  0.09476581  0.79492290     0.17240
N914        N  0.39589130  0.10607294  0.78805242    -0.89470
H915        H  0.36500202  0.99890167  0.84856382     0.34620
H916        H  0.33841918  0.00033151  0.82903628     0.39720
H917        H  0.41610524  0.10563542  0.78555236     0.39340
H918        H  0.39166545  0.12265684  0.80085725     0.34230
C919        C  0.14064979  0.07826888  0.80990776    -0.27500
C920        C  0.15143395  0.05174304  0.80643917    -0.15580
C921        C  0.13415485  0.02875419  0.80377006     0.35050
C922        C  0.10709790  0.03262881  0.80339193    -0.26950
C923        C  0.09627365  0.05904255  0.80675895    -0.16190
C924        C  0.11345407  0.08217918  0.81016802     0.36140
N925        N  0.10403620  0.10995431  0.81327443    -0.90440
H926        H  0.15346772  0.09615197  0.81252148     0.17250
H927        H  0.09437383  0.01461936  0.80098749     0.17240
N928        N  0.14340574  0.00092693  0.80307214    -0.89470
H929        H  0.09275070  0.11067607  0.83078526     0.34620
H930        H  0.09233760  0.11488729  0.79680558     0.39720
H931        H  0.15456856  0.99761456  0.82030555     0.39340
H932        H  0.15514780  0.99869565  0.78607049     0.34230
C933        C  0.36029153  0.43026136  0.69261286    -0.27500
C934        C  0.34764608  0.45210985  0.70599096    -0.15580
C935        C  0.36332258  0.47235161  0.71910330     0.35050
C936        C  0.39078126  0.47031738  0.71850281    -0.26950
C937        C  0.40332959  0.44823464  0.70563370    -0.16190
C938        C  0.38772154  0.42808101  0.69235329     0.36140
N939        N  0.39946144  0.40516476  0.67866218    -0.90440
H940        H  0.34883352  0.41466801  0.68211620     0.17250
H941        H  0.40253290  0.48632532  0.72796344     0.17240
N942        N  0.35144541  0.49545748  0.73232468    -0.89470
H943        H  0.39362482  0.40578972  0.65856419     0.34620
H944        H  0.39221825  0.38668643  0.68717878     0.39720
H945        H  0.34202225  0.50648198  0.71737628     0.39340
H946        H  0.36557137  0.50920266  0.73971732     0.34230
C947        C  0.13825791  0.43339979  0.68215627    -0.27500
C948        C  0.15095897  0.45473340  0.69647558    -0.15580
C949        C  0.13552852  0.47556698  0.70858662     0.35050
C950        C  0.10819739  0.47493753  0.70547566    -0.26950
C951        C  0.09547068  0.45177712  0.69438024    -0.16190
C952        C  0.11075159  0.43136456  0.68132856     0.36140
N953        N  0.09849474  0.40815693  0.66805479    -0.90440
H954        H  0.14982340  0.41763456  0.67229134     0.17250
H955        H  0.09660003  0.49091437  0.71500120     0.17240
N956        N  0.14729193  0.49643295  0.72535051    -0.89470
H957        H  0.11251219  0.39458573  0.66038900     0.34620
H958        H  0.08842185  0.41602670  0.65150214     0.39720
H959        H  0.15529421  0.48613428  0.74182295     0.39340
H960        H  0.13311808  0.50966622  0.73326102     0.34230
C961        C  0.38678110  0.07251700  0.72287609    -0.27500
C962        C  0.40187982  0.05712226  0.70465651    -0.15580
C963        C  0.38915195  0.04285478  0.68348819     0.35050
C964        C  0.36169291  0.04335483  0.68194072    -0.26950
C965        C  0.34664049  0.05784322  0.70090692    -0.16190
C966        C  0.35930843  0.07324259  0.72095745     0.36140
N967        N  0.34419588  0.09058733  0.73837779    -0.90440
H968        H  0.39656588  0.08438716  0.73835845     0.17250
H969        H  0.35196473  0.03172318  0.66619816     0.17240
N970        N  0.40324014  0.02726839  0.66361613    -0.89470
H971        H  0.35647950  0.10267686  0.75040134     0.34620
H972        H  0.33301962  0.07755879  0.75089398     0.39720
H973        H  0.42334148  0.02777617  0.66704424     0.39340
H974        H  0.40022772  0.03686183  0.64501028     0.34230
C975        C  0.14015916  0.07166233  0.71978179    -0.27500
C976        C  0.15174120  0.05565936  0.69957735    -0.15580
C977        C  0.13560662  0.04118364  0.68121292     0.35050
C978        C  0.10815668  0.04219047  0.68411204    -0.26950
C979        C  0.09659796  0.05771622  0.70471199    -0.16190
C980        C  0.11273481  0.07332876  0.72213186     0.36140
N981        N  0.10115382  0.09164018  0.74146920    -0.90440
H982        H  0.15254734  0.08310911  0.73356353     0.17250
H983        H  0.09574666  0.03067868  0.67040532     0.17240
N984        N  0.14719563  0.02451963  0.66047279    -0.89470
H985        H  0.11562991  0.10187294  0.75255077     0.34620
H986        H  0.09038213  0.07940751  0.75496996     0.39720
H987        H  0.15700587  0.03797714  0.64720723     0.39340
H988        H  0.13272060  0.01436434  0.64931739     0.34230
C989        C  0.33357412  0.35962454  0.58569485    -0.27500
C990        C  0.32066991  0.34902851  0.56310727    -0.15580
C991        C  0.30338880  0.36664259  0.54884036     0.35050
C992        C  0.29928744  0.39402892  0.55802178    -0.26950
C993        C  0.31272209  0.40456101  0.58044256    -0.16190
C994        C  0.33036088  0.38704167  0.59413107     0.36140
N995        N  0.34605600  0.39659706  0.61624090    -0.90440
H996        H  0.34791942  0.34694206  0.59588923     0.17250
H997        H  0.28502751  0.40688601  0.54796642     0.17240
N998        N  0.29006164  0.35781186  0.52492248    -0.89470
H999        H  0.33907490  0.38686992  0.63372156     0.34620
H1000       H  0.34486641  0.41808938  0.61894447     0.39720
H1001       H  0.29400454  0.33712008  0.52030197     0.39340
H1002       H  0.29718690  0.36991770  0.50893407     0.34230
C1003       C  0.32552497  0.11909547  0.59486744    -0.27500
C1004       C  0.31063540  0.10123169  0.57857184    -0.15580
C1005       C  0.29914129  0.11200690  0.55504413     0.35050
C1006       C  0.30338511  0.14033947  0.54822268    -0.26950
C1007       C  0.31818007  0.15804212  0.56492748    -0.16190
C1008       C  0.32869681  0.14726645  0.58890407     0.36140
N1009       N  0.34358773  0.16420041  0.60724304    -0.90440
H1010       H  0.33382867  0.11130411  0.61341675     0.17250
H1011       H  0.29629803  0.14825812  0.52921626     0.17240
N1012       N  0.28291140  0.09451462  0.53859012    -0.89470
H1013       H  0.33404495  0.16346663  0.62586509     0.34620
H1014       H  0.34367096  0.18512875  0.60148176     0.39720
H1015       H  0.29479807  0.07909089  0.53042316     0.39340
H1016       H  0.27551720  0.10585683  0.52239039     0.34230
C1017       C  0.34597789  0.37441567  0.93466800    -0.27500
C1018       C  0.32801175  0.35307860  0.94181615    -0.15580
C1019       C  0.30165382  0.35999511  0.94604747     0.35050
C1020       C  0.29400059  0.38799192  0.94298929    -0.26950
C1021       C  0.31215510  0.40895576  0.93557434    -0.16190
C1022       C  0.33838487  0.40205769  0.93158163     0.36140
N1023       N  0.35708045  0.42304651  0.92331338    -0.90440
H1024       H  0.36635261  0.36960265  0.93134566     0.17250
H1025       H  0.27348353  0.39318937  0.94446859     0.17240
N1026       N  0.28280248  0.33879055  0.95298458    -0.89470
H1027       H  0.37582986  0.41468719  0.92198985     0.34620
H1028       H  0.35225613  0.42951346  0.90389386     0.39720
H1029       H  0.28162370  0.32505540  0.93677471     0.39340
H1030       H  0.26430296  0.34750854  0.95496081     0.34230
C1031       C  0.29643384  0.11456891  0.94592447    -0.27500
C1032       C  0.31228092  0.09852061  0.92890730    -0.15580
C1033       C  0.33461200  0.11082436  0.91687460     0.35050
C1034       C  0.34000635  0.13892727  0.92122839    -0.26950
C1035       C  0.32444031  0.15514147  0.93825389    -0.16190
C1036       C  0.30247004  0.14281961  0.95097482     0.36140
N1037       N  0.28694228  0.15864231  0.96945061    -0.90440
H1038       H  0.27871047  0.10540866  0.95426053     0.17250
H1039       H  0.35749225  0.14792514  0.91217957     0.17240
N1040       N  0.35195754  0.09552998  0.89961974    -0.89470
H1041       H  0.27191217  0.14625501  0.97756168     0.34620
H1042       H  0.27795929  0.17445647  0.95848140     0.39720
H1043       H  0.34678358  0.07446377  0.89880654     0.39340
H1044       H  0.37053116  0.09620650  0.90827980     0.34230
C1045       C  0.42038709  0.32093694  0.86021139    -0.27500
C1046       C  0.43943014  0.30798464  0.84459935    -0.15580
C1047       C  0.45492418  0.28718666  0.85652819     0.35050
C1048       C  0.45324285  0.28255874  0.88464873    -0.26950
C1049       C  0.43715476  0.29916361  0.90101952    -0.16190
C1050       C  0.41928627  0.31733148  0.88813766     0.36140
N1051       N  0.40090725  0.33345502  0.90332193    -0.90440
H1052       H  0.40833410  0.33673520  0.85097839     0.17250
H1053       H  0.46578688  0.26730703  0.89393514     0.17240
N1054       N  0.47370439  0.27253559  0.84053249    -0.89470
H1055       H  0.38744812  0.34306188  0.89064458     0.34620
H1056       H  0.41140112  0.34958654  0.91249493     0.39720
H1057       H  0.46333071  0.26065229  0.82653918     0.39340
H1058       H  0.48401105  0.25847649  0.85244698     0.34230
C1059       C  0.43352981  0.29154381  0.62279222    -0.27500
C1060       C  0.43578464  0.31216230  0.60265158    -0.15580
C1061       C  0.43395891  0.34042812  0.61016880     0.35050
C1062       C  0.43092083  0.34708727  0.63718398    -0.26950
C1063       C  0.43314817  0.32694682  0.65771881    -0.16190
C1064       C  0.43179733  0.29865808  0.65031851     0.36140
N1065       N  0.42722348  0.27707675  0.66979257    -0.90440
H1066       H  0.43197188  0.26995449  0.61700360     0.17250
H1067       H  0.42983031  0.36901235  0.64209453     0.17240
N1068       N  0.43623629  0.36318022  0.59126574    -0.89470
H1069       H  0.41012745  0.26648576  0.66427454     0.34620
H1070       H  0.42320697  0.28549751  0.68864019     0.39720
H1071       H  0.44293239  0.35658249  0.57256620     0.39340
H1072       H  0.45108858  0.37649298  0.59804400     0.34230
C1073       C  0.46701252  0.20086070  0.89203655    -0.27500
C1074       C  0.44237554  0.20287301  0.90402424    -0.15580
C1075       C  0.41985668  0.20219737  0.88738354     0.35050
C1076       C  0.42245557  0.19707994  0.85972956    -0.26950
C1077       C  0.44703322  0.19241370  0.84830003    -0.16190
C1078       C  0.46947451  0.19485491  0.86454432     0.36140
N1079       N  0.49448156  0.18789108  0.85352340    -0.90440
H1080       H  0.48429834  0.20169846  0.90452739     0.17250
H1081       H  0.40506900  0.19454774  0.84759860     0.17240
N1082       N  0.39409246  0.20620895  0.89794714    -0.89470
H1083       H  0.50871299  0.18844997  0.86844561     0.34620
H1084       H  0.49918249  0.20299121  0.83910462     0.39720
H1085       H  0.39387805  0.22490771  0.90864351     0.39340
H1086       H  0.38945789  0.18976853  0.91092830     0.34230
C1087       C  0.42132319  0.16774204  0.64467378    -0.27500
C1088       C  0.43642196  0.18424521  0.66194002    -0.15580
C1089       C  0.44801757  0.20880663  0.65180720     0.35050
C1090       C  0.44753412  0.21420046  0.62379874    -0.26950
C1091       C  0.43430183  0.19620775  0.60599645    -0.16190
C1092       C  0.42024802  0.17315037  0.61697723     0.36140
N1093       N  0.40613225  0.15416576  0.59994085    -0.90440
H1094       H  0.41224323  0.14887203  0.65251142     0.17250
H1095       H  0.45829038  0.23191435  0.61580010     0.17240
N1096       N  0.46170766  0.22707959  0.66972750    -0.89470
H1097       H  0.39612793  0.13908638  0.61132101     0.34620
H1098       H  0.41989094  0.14346541  0.58843123     0.39720
H1099       H  0.44874526  0.23285386  0.68494605     0.39340
H1100       H  0.46718579  0.24534105  0.65963408     0.34230
C1101       C  0.16031323  0.36877217  0.93245047    -0.27500
C1102       C  0.17649582  0.35015626  0.94631081    -0.15580
C1103       C  0.19931610  0.36063264  0.95876306     0.35050
C1104       C  0.20690714  0.38865926  0.95399538    -0.26950
C1105       C  0.19068836  0.40669880  0.93940273    -0.16190
C1106       C  0.16644568  0.39700227  0.93038413     0.36140
N1107       N  0.14856918  0.41591165  0.91801348    -0.90440
H1108       H  0.14204512  0.36142916  0.92394036     0.17250
H1109       H  0.22576432  0.39615827  0.96083471     0.17240
N1110       N  0.21423494  0.34327165  0.97641393    -0.89470
H1111       H  0.13142475  0.40551984  0.91230864     0.34620
H1112       H  0.14317308  0.43049100  0.93251675     0.39720
H1113       H  0.20219365  0.33790410  0.99270191     0.39340
H1114       H  0.22975651  0.35468041  0.98459761     0.34230
C1115       C  0.17011924  0.11112314  0.91594842    -0.27500
C1116       C  0.18881828  0.09723290  0.93142053    -0.15580
C1117       C  0.20196956  0.11217678  0.95205821     0.35050
C1118       C  0.19567513  0.14029614  0.95644419    -0.26950
C1119       C  0.17731367  0.15398018  0.94034959    -0.16190
C1120       C  0.16506458  0.13930507  0.91933446     0.36140
N1121       N  0.14712608  0.15236646  0.90113847    -0.90440
H1122       H  0.16058606  0.10035767  0.89948588     0.17250
H1123       H  0.20446660  0.15121336  0.97319060     0.17240
N1124       N  0.22203779  0.10018531  0.96843634    -0.89470
H1125       H  0.15469618  0.15028146  0.88170133     0.34620
H1126       H  0.14600434  0.17377306  0.90447256     0.39720
H1127       H  0.22500416  0.07931906  0.96397855     0.39340
H1128       H  0.21560149  0.10068564  0.48840643     0.34230
C1129       C  0.17616585  0.37506598  0.54147142    -0.27500
C1130       C  0.18326785  0.34969486  0.55372899    -0.15580
C1131       C  0.20244607  0.34981680  0.57374186     0.35050
C1132       C  0.21191133  0.37552136  0.58320599    -0.26950
C1133       C  0.20248814  0.40102815  0.57309278    -0.16190
C1134       C  0.18577095  0.40078614  0.55082859     0.36140
N1135       N  0.17724713  0.42646566  0.53903213    -0.90440
H1136       H  0.16208779  0.37488913  0.52527167     0.17250
H1137       H  0.22571721  0.37562575  0.59964564     0.17240
N1138       N  0.21110244  0.32412080  0.58542426    -0.89470
H1139       H  0.16417368  0.42254439  0.02338408     0.34620
H1140       H  0.19361967  0.43612716  0.53029565     0.39720
H1141       H  0.19521977  0.31508742  0.59562098     0.39340
H1142       H  0.22550326  0.32793749  0.59982093     0.34230
C1143       C  0.15962735  0.13160277  0.57592595    -0.27500
C1144       C  0.17643944  0.15062860  0.56267379    -0.15580
C1145       C  0.20126371  0.14150599  0.55411157     0.35050
C1146       C  0.20879675  0.11383263  0.55986888    -0.26950
C1147       C  0.19166086  0.09512527  0.57316274    -0.16190
C1148       C  0.16678947  0.10414599  0.58100921     0.36140
N1149       N  0.14898472  0.08541952  0.59469748    -0.90440
H1150       H  0.14032621  0.13809595  0.58212099     0.17250
H1151       H  0.22844156  0.10719059  0.55506184     0.17240
N1152       N  0.21862421  0.16006859  0.53980034    -0.89470
H1153       H  0.13096495  0.09493176  0.59799124     0.34620
H1154       H  0.15658252  0.08118390  0.61371340     0.39720
H1155       H  0.21000615  0.16459927  0.52132175     0.39340
H1156       H  0.23623685  0.15014942  0.53543450     0.34230
C1157       C  0.07588754  0.29554701  0.88458722    -0.27500
C1158       C  0.05424154  0.29790150  0.90197262    -0.15580
C1159       C  0.02961942  0.30394644  0.89126404     0.35050
C1160       C  0.02710954  0.30821316  0.86346816    -0.26950
C1161       C  0.04889755  0.30738980  0.84613664    -0.16190
C1162       C  0.07345225  0.30046664  0.85671077     0.36140
N1163       N  0.09599864  0.30026520  0.83941267    -0.90440
H1164       H  0.09487135  0.29087338  0.89292686     0.17250
H1165       H  0.00849824  0.31496020  0.85558635     0.17240
N1166       N  0.00799327  0.30893219  0.90903639    -0.89470
H1167       H  0.11270030  0.29522082  0.85034999     0.34620
H1168       H  0.09320485  0.28432843  0.82542907     0.39720
H1169       H  0.00203138  0.28976072  0.91707986     0.39340
H1170       H  0.99224200  0.31712073  0.89847372     0.34230
C1171       C  0.04006413  0.29213402  0.61763025    -0.27500
C1172       C  0.06114608  0.30343949  0.60286033    -0.15580
C1173       C  0.08076612  0.31868970  0.61669104     0.35050
C1174       C  0.07754320  0.32429189  0.64420154    -0.26950
C1175       C  0.05550704  0.31477220  0.65841162    -0.16190
C1176       C  0.03675974  0.29807264  0.64514313     0.36140
N1177       N  0.01342121  0.28906944  0.65902257    -0.90440
H1178       H  0.02522570  0.28002687  0.60734073     0.17250
H1179       H  0.09154743  0.33767300  0.65430681     0.17240
N1180       N  0.10353098  0.32920010  0.60276589    -0.89470
H1181       H  0.00138592  0.27770266  0.64608750     0.34620
H1182       H  0.00281822  0.30679342  0.66413359     0.39720
H1183       H  0.11458857  0.31204863  0.59690139     0.39340
H1184       H  0.11537542  0.34089445  0.61565471     0.34230
C1185       C  0.07769313  0.17134457  0.86285147    -0.27500
C1186       C  0.06367918  0.18899612  0.84582912    -0.15400
C1187       C  0.05344401  0.21374425  0.85666287     0.35050
C1188       C  0.05361447  0.21768369  0.88495650    -0.26950
C1189       C  0.06397893  0.19732577  0.90233483    -0.16190
C1190       C  0.07679110  0.17421779  0.89081433     0.36140
N1191       N  0.08726890  0.15249374  0.90745479    -0.90440
H1192       H  0.08625655  0.15273404  0.85451810     0.17250
H1193       H  0.04471407  0.23604851  0.89344561     0.17240
N1194       N  0.04101579  0.23346824  0.83932206    -0.89470
H1195       H  0.09592452  0.13702059  0.89578029     0.34620
H1196       H  0.07155359  0.14284409  0.91741118     0.39720
H1197       H  0.05542789  0.24197717  0.82670127     0.39340
H1198       H  0.03342820  0.24985143  0.85057035     0.34230
C1199       C  0.08072330  0.17982470  0.64727108    -0.27500
C1200       C  0.05906383  0.18912016  0.66181230    -0.15580
C1201       C  0.04078086  0.20623884  0.64885136     0.35050
C1202       C  0.04312308  0.21153145  0.62105151    -0.26950
C1203       C  0.06338932  0.19988853  0.60591068    -0.16190
C1204       C  0.08347828  0.18554815  0.61964709     0.36140
N1205       N  0.10631736  0.17620660  0.60554369    -0.90440
H1206       H  0.09477078  0.16659432  0.65719774     0.17250
H1207       H  0.02816389  0.22338191  0.61093399     0.17240
N1208       N  0.01874528  0.21644724  0.66348657    -0.89470
H1209       H  0.11878298  0.16558442  0.61853290     0.34620
H1210       H  0.11662634  0.19393360  0.59907802     0.39720
H1211       H  0.00682277  0.19932972  0.66835690     0.39340
H1212       H  0.00788590  0.22925763  0.65093382     0.34230
N1213       N  0.15604071  0.71464274  0.03295886    -0.07300
N1214       N  0.17557128  0.70095230  0.04456554    -0.59420
N1215       N  0.13497261  0.69798778  0.47353044    -0.06980
N1216       N  0.13933646  0.67538452  0.45971221    -0.61550
N1217       N  0.15567446  0.71459513  0.47340514    -0.06580
N1218       N  0.17504163  0.70247387  0.46011916    -0.59400
N1219       N  0.13476549  0.69889923  0.03393879    -0.06260
N1220       N  0.13889543  0.67580487  0.04703642    -0.61900
C1221       C  0.16411164  0.67686810  0.05368602     0.94870
C1222       C  0.16403393  0.67834413  0.45121361     0.94650
N1223       N  0.05702752  0.71716026  0.47130553    -0.07490
N1224       N  0.04859857  0.71934404  0.44614076    -0.60000
N1225       N  0.07569010  0.69916440  0.03579698    -0.05610
N1226       N  0.07972369  0.68861482  0.05987399    -0.61250
N1227       N  0.05738030  0.71802657  0.03661982    -0.07520
N1228       N  0.04877231  0.72069359  0.06167358    -0.60270
N1229       N  0.07548174  0.69846516  0.47248933    -0.05250
N1230       N  0.07965689  0.68753604  0.44867644    -0.61340
Mn1231     Mn  0.10462660  0.69838663  0.00392419     1.18440
C1232       C  0.06279291  0.70041433  0.43225095     0.96960
C1233       C  0.06297687  0.70215562  0.07599885     0.97620
N1234       N  0.15620966  0.78429729  0.47220608    -0.07540
N1235       N  0.17604797  0.79932752  0.46221399    -0.63850
N1236       N  0.13633065  0.80246507  0.03025973    -0.06340
N1237       N  0.14251958  0.82681105  0.04038164    -0.64520
N1238       N  0.15643212  0.78540209  0.03121973    -0.07040
N1239       N  0.17689844  0.79878919  0.04156150    -0.64110
N1240       N  0.13453087  0.79874395  0.46995704    -0.05940
N1241       N  0.13878788  0.82207848  0.45715392    -0.64800
Mn1242     Mn  0.15722302  0.74967080  0.50262529     1.10660
C1243       C  0.16447676  0.82273096  0.45251441     0.98180
C1244       C  0.16762785  0.82451893  0.04740062     0.98250
N1245       N  0.05741864  0.78141062  0.03476491    -0.07050
N1246       N  0.04789700  0.78028034  0.05954818    -0.62430
N1247       N  0.07529362  0.79776327  0.46950965    -0.06370
N1248       N  0.07752397  0.80799279  0.44490179    -0.59160
N1249       N  0.05581550  0.77990001  0.47097991    -0.07680
N1250       N  0.04411804  0.77790223  0.44741237    -0.61990
N1251       N  0.07619899  0.80016745  0.03328022    -0.06670
N1252       N  0.07973250  0.81211063  0.05681575    -0.59180
Mn1253     Mn  0.05531955  0.74899250  0.00357491     1.20190
Mn1254     Mn  0.10504408  0.79997496  0.50076691     1.10090
Cl1255     Cl  0.10616660  0.74929714  0.00301665    -0.87150
C1256       C  0.06201987  0.79960980  0.07314306     0.95180
C1257       C  0.05779139  0.79564514  0.43139174     0.94980
N1258       N  0.44003300  0.72068547  0.03803623    -0.07300
N1259       N  0.44870420  0.72165336  0.06317402    -0.59420
N1260       N  0.42462540  0.70157773  0.47271922    -0.06980
N1261       N  0.42179025  0.69144761  0.44829878    -0.61550
N1262       N  0.44403663  0.71959002  0.47341970    -0.06580
N1263       N  0.45490598  0.72177795  0.44925597    -0.59400
N1264       N  0.42139279  0.70188557  0.03613107    -0.06260
N1265       N  0.41719310  0.68965087  0.05947853    -0.61900
C1266       C  0.43437741  0.70177371  0.07632404     0.94870
C1267       C  0.44068908  0.70420264  0.43377717     0.94650
N1268       N  0.34454853  0.71746311  0.47057246    -0.07490
N1269       N  0.32565021  0.70454359  0.45701816    -0.60000
N1270       N  0.36197699  0.70144529  0.03140165    -0.05610
N1271       N  0.35671939  0.67903468  0.04546791    -0.61250
N1272       N  0.34155199  0.71798289  0.03020413    -0.07520
N1273       N  0.32146537  0.70593715  0.04293577    -0.60270
N1274       N  0.36529989  0.70138081  0.47124091    -0.05250
N1275       N  0.36150279  0.67860352  0.45749922    -0.61340
Mn1276     Mn  0.39385357  0.70129164  0.00290070     1.18440
C1277       C  0.33704626  0.68056699  0.44854445     0.96960
C1278       C  0.33175940  0.68194020  0.05272167     0.97620
N1279       N  0.44384738  0.78246537  0.47110451    -0.07540
N1280       N  0.45236619  0.77901558  0.44598848    -0.63850
N1281       N  0.42230829  0.80301506  0.03401524    -0.06340
N1282       N  0.41828154  0.81610853  0.05676468    -0.64520
N1283       N  0.44045667  0.78415343  0.03663679    -0.07040
N1284       N  0.44903306  0.78394458  0.06180142    -0.64110
N1285       N  0.42592775  0.80175449  0.47133335    -0.05940
N1286       N  0.42233894  0.81184251  0.44707552    -0.64800
Mn1287     Mn  0.44381621  0.75179236  0.00504746     1.10660
C1288       C  0.43865618  0.79765097  0.43114928     0.98180
C1289       C  0.43521837  0.80445416  0.07389076     0.98250
N1290       N  0.34240737  0.78806629  0.02933989    -0.07050
N1291       N  0.32278206  0.80043560  0.04211187    -0.62430
N1292       N  0.36728539  0.80218189  0.46909317    -0.06370
N1293       N  0.36445324  0.82529630  0.45569610    -0.59160
N1294       N  0.34538267  0.78751765  0.46970972    -0.07680
N1295       N  0.32670470  0.80218651  0.45781487    -0.61990
N1296       N  0.36311891  0.80466186  0.02949135    -0.06670
N1297       N  0.35843921  0.82761576  0.04267670    -0.59180
Mn1298     Mn  0.34211854  0.75272447  0.99997122     1.20190
Mn1299     Mn  0.39521435  0.80299008  0.00110943     1.10090
Cl1300     Cl  0.39313725  0.75213640  0.00245130    -0.87150
C1301       C  0.33352925  0.82497136  0.05055388     0.95180
C1302       C  0.33932507  0.82565591  0.44878988     0.94980
N1303       N  0.22358565  0.53551570  0.09865031    -0.07300
N1304       N  0.21179683  0.54716242  0.07772875    -0.59420
N1305       N  0.28095595  0.55369616  0.12180450    -0.06980
N1306       N  0.29367433  0.57695467  0.11732442    -0.61550
N1307       N  0.28143641  0.53739908  0.10054217    -0.06580
N1308       N  0.29361905  0.55077959  0.08049549    -0.59400
N1309       N  0.22233292  0.55250179  0.11940580    -0.06260
N1310       N  0.20921646  0.57492009  0.11350451    -0.61900
C1311       C  0.20253978  0.57145274  0.08782651     0.94870
C1312       C  0.30159655  0.57526110  0.09179976     0.94650
N1313       N  0.28023496  0.53680796  0.20250761    -0.07490
N1314       N  0.30347743  0.53669100  0.21404272    -0.60000
N1315       N  0.21835579  0.55316861  0.18100345    -0.05610
N1316       N  0.19520772  0.56479300  0.17818553    -0.61250
N1317       N  0.21804204  0.53537905  0.20106409    -0.07520
N1318       N  0.19455909  0.53469298  0.21239640    -0.60270
N1319       N  0.28030823  0.55473516  0.18256395    -0.05250
N1320       N  0.30350671  0.56682112  0.17993411    -0.61340
Mn1321     Mn  0.25036181  0.55366498  0.15161164     1.18440
C1322       C  0.31771097  0.55580533  0.19996696     0.96960
C1323       C  0.18061835  0.55346672  0.19817946     0.97620
N1324       N  0.28237080  0.96688007  0.10220952    -0.07540
N1325       N  0.29486242  0.95386888  0.08245116    -0.63850
N1326       N  0.22366371  0.94907443  0.12110940    -0.06340
N1327       N  0.21329803  0.92485201  0.11497801    -0.64520
N1328       N  0.22462730  0.96560320  0.09982217    -0.07040
N1329       N  0.21534748  0.95194411  0.07864984    -0.64110
N1330       N  0.28207898  0.95076316  0.12378938    -0.05940
N1331       N  0.29500781  0.92778739  0.11955532    -0.64800
Mn1332     Mn  0.25306808  0.50138111  0.09934929     1.10660
C1333       C  0.30317498  0.92980788  0.09404047     0.98180
C1334       C  0.20816506  0.92659529  0.08866577     0.98250
N1335       N  0.21853413  0.97185161  0.20189574    -0.07050
N1336       N  0.19444506  0.97440492  0.21117702    -0.62430
N1337       N  0.28119719  0.95330227  0.18550624    -0.06370
N1338       N  0.30444913  0.94157723  0.18442911    -0.59160
N1339       N  0.28072079  0.97253428  0.20415310    -0.07680
N1340       N  0.30375666  0.97412495  0.21608152    -0.61990
N1341       N  0.21910910  0.95276028  0.18307621    -0.06670
N1342       N  0.19547618  0.94205168  0.17939959    -0.59180
Mn1343     Mn  0.24944347  0.00406459  0.20392003     1.20190
Mn1344     Mn  0.25142618  0.95121489  0.15396831     1.10090
Cl1345     Cl  0.25107592  0.00252892  0.15191368    -0.87150
C1346       C  0.18016448  0.95562100  0.19717519     0.95180
C1347       C  0.31849804  0.95460557  0.20368300     0.94980
N1348       N  0.21770262  0.52954459  0.30786571    -0.07300
N1349       N  0.19439848  0.52798743  0.29645682    -0.59420
N1350       N  0.27918135  0.55140713  0.32602340    -0.06980
N1351       N  0.30205210  0.56399715  0.32890951    -0.61550
N1352       N  0.28057405  0.53150974  0.30804332    -0.06580
N1353       N  0.30482171  0.53005227  0.29867304    -0.59400
N1354       N  0.21775254  0.54918648  0.32611840    -0.06260
N1355       N  0.19479832  0.56149675  0.32730972    -0.61900
C1356       C  0.18031274  0.54823441  0.30861560     0.94870
C1357       C  0.31783758  0.55077116  0.31157543     0.94650
N1358       N  0.27866335  0.53757834  0.40847417    -0.07490
N1359       N  0.29224492  0.55003754  0.42776494    -0.60000
N1360       N  0.21942477  0.55140875  0.38784999    -0.05610
N1361       N  0.20618293  0.57401766  0.39244731    -0.61250
N1362       N  0.22045669  0.53559092  0.40955503    -0.07520
N1363       N  0.20829249  0.54827433  0.42970681    -0.60270
N1364       N  0.27798996  0.55388739  0.38712526    -0.05250
N1365       N  0.29160722  0.57672671  0.39092422    -0.61340
Mn1366     Mn  0.24845648  0.55170844  0.35630345     1.18440
C1367       C  0.30059645  0.57412582  0.41596803     0.96960
C1368       C  0.19929780  0.57213957  0.41834203     0.97620
N1369       N  0.28148056  0.96758526  0.30892615    -0.07540
N1370       N  0.30458475  0.96820098  0.29675118    -0.63850
N1371       N  0.22017937  0.94731729  0.33009682    -0.06340
N1372       N  0.19765465  0.93399375  0.33298611    -0.64520
N1373       N  0.21923076  0.96516280  0.31008101    -0.07040
N1374       N  0.19580873  0.96411075  0.29886769    -0.64110
N1375       N  0.28163885  0.94939440  0.32862771    -0.05940
N1376       N  0.30462686  0.93726924  0.33018411    -0.64800
Mn1377     Mn  0.24969622  0.49849838  0.30711536     1.10660
C1378       C  0.31884699  0.94887039  0.31003682     0.98180
C1379       C  0.18258614  0.94439163  0.31329041     0.98250
N1380       N  0.22241688  0.96636211  0.41219978    -0.07050
N1381       N  0.21023910  0.95505092  0.43328196    -0.62430
N1382       N  0.28102776  0.95127862  0.39008042    -0.06370
N1383       N  0.29468144  0.92914776  0.39555184    -0.59160
N1384       N  0.28036657  0.96842936  0.41072998    -0.07680
N1385       N  0.29303019  0.95710654  0.43122876    -0.61990
N1386       N  0.22257322  0.94847381  0.39211630    -0.06670
N1387       N  0.21007700  0.92549520  0.39871475    -0.59180
Mn1388     Mn  0.25046228  0.50204858  0.41125574     1.20190
Mn1389     Mn  0.25129617  0.94887275  0.35979866     1.10090
Cl1390     Cl  0.24988021  0.50025648  0.35883706    -0.87150
C1391       C  0.20238081  0.92975183  0.42410063     0.95180
C1392       C  0.30223346  0.93292152  0.42090084     0.94980
N1393       N  0.02879532  0.66340362  0.22090990    -0.07300
N1394       N  0.04181343  0.68435177  0.20933596    -0.59420
N1395       N  0.46997216  0.64037192  0.20509006    -0.06980
N1396       N  0.45543557  0.64424394  0.18384581    -0.61550
N1397       N  0.47001091  0.66252980  0.22069162    -0.06580
N1398       N  0.45605876  0.68243990  0.20908171    -0.59400
N1399       N  0.02932099  0.64149091  0.20495706    -0.06260
N1400       N  0.04333733  0.64678639  0.18331755    -0.61900
C1401       C  0.05133611  0.67331496  0.18616228     0.94870
C1402       C  0.44660964  0.67028357  0.18631086     0.94650
N1403       N  0.46773539  0.55748890  0.22601001    -0.07490
N1404       N  0.44416836  0.54582933  0.22724174    -0.60000
N1405       N  0.03035258  0.57706014  0.20715147    -0.05610
N1406       N  0.05338451  0.57868484  0.19504708    -0.61250
N1407       N  0.03037254  0.55775294  0.22589868    -0.07520
N1408       N  0.05368872  0.54600634  0.22695153    -0.60270
N1409       N  0.46847315  0.57651912  0.20701096    -0.05250
N1410       N  0.44561174  0.57797460  0.19483881    -0.61340
Mn1411     Mn  0.99961030  0.60840615  0.20567453     1.18440
C1412       C  0.43073563  0.55837063  0.20725044     0.96960
C1413       C  0.06768595  0.55885989  0.20718313     0.97620
N1414       N  0.46987998  0.66453821  0.28793987    -0.07540
N1415       N  0.45851846  0.68611987  0.29967451    -0.63850
N1416       N  0.02847260  0.64369199  0.30449054    -0.06340
N1417       N  0.04295211  0.64861229  0.32556605    -0.64520
N1418       N  0.02849204  0.66532858  0.28810514    -0.07040
N1419       N  0.04243018  0.68602269  0.29899492    -0.64110
N1420       N  0.46891121  0.64297201  0.30444070    -0.05940
N1421       N  0.45586462  0.64906381  0.32637911    -0.64800
Mn1422     Mn  0.49928507  0.66511927  0.25433173     1.10660
C1423       C  0.44925549  0.67587480  0.32346990     0.98180
C1424       C  0.05187038  0.67476406  0.32220568     0.98250
N1425       N  0.02963643  0.55911091  0.28750625    -0.07050
N1426       N  0.05283812  0.54724811  0.28661253    -0.62430
N1427       N  0.46808670  0.57892520  0.30564069    -0.06370
N1428       N  0.44532818  0.58085625  0.31810160    -0.59160
N1429       N  0.46749449  0.55886081  0.28781703    -0.07680
N1430       N  0.44406136  0.54684587  0.28775063    -0.61990
N1431       N  0.02986524  0.57965861  0.30482226    -0.06670
N1432       N  0.05321085  0.58226695  0.31584779    -0.59180
Mn1433     Mn  0.99873653  0.55686856  0.25682276     1.20190
Mn1434     Mn  0.99883993  0.61087373  0.30515589     1.10090
Cl1435     Cl  0.99913104  0.61084613  0.25545619    -0.87150
C1436       C  0.06738947  0.56181099  0.30447765     0.95180
C1437       C  0.43055344  0.56051095  0.30706924     0.94980
N1438       N  0.03212556  0.94543139  0.22367051    -0.07300
N1439       N  0.05466218  0.95914068  0.22192244    -0.59420
N1440       N  0.46978698  0.92768629  0.20642130    -0.06980
N1441       N  0.44655424  0.92633894  0.19502869    -0.61550
N1442       N  0.47014335  0.94668324  0.22527105    -0.06580
N1443       N  0.44694897  0.95860098  0.22699653    -0.59400
N1444       N  0.03100355  0.92625350  0.20502116    -0.06260
N1445       N  0.05251341  0.92642165  0.19029303    -0.61900
C1446       C  0.06717880  0.94720966  0.20075700     0.94870
C1447       C  0.43237022  0.94581016  0.20784213     0.94650
N1448       N  0.46793646  0.84149015  0.21834562    -0.07490
N1449       N  0.45292110  0.82305464  0.20537600    -0.60000
N1450       N  0.02790417  0.86177172  0.20265456    -0.05610
N1451       N  0.04138775  0.85680057  0.18070541    -0.61250
N1452       N  0.02672680  0.83942704  0.21815421    -0.07520
N1453       N  0.03872458  0.81851963  0.20601987    -0.60270
N1454       N  0.46844781  0.86490226  0.20454399    -0.05250
N1455       N  0.45304511  0.86357930  0.18384164    -0.61340
Mn1456     Mn  0.49951863  0.89536064  0.20445003     1.18440
C1457       C  0.44327945  0.83767160  0.18392999     0.96960
C1458       C  0.04832099  0.83002296  0.18295267     0.97620
N1459       N  0.47060752  0.94311256  0.28663751    -0.07540
N1460       N  0.44759969  0.95528165  0.28560071    -0.63850
N1461       N  0.03138230  0.92125918  0.30401342    -0.06340
N1462       N  0.05407573  0.91839539  0.31626951    -0.64520
N1463       N  0.03262939  0.94153984  0.28626309    -0.07040
N1464       N  0.05639329  0.95265371  0.28598346    -0.64110
N1465       N  0.46968308  0.92224556  0.30375057    -0.05940
N1466       N  0.44611044  0.91994851  0.31460829    -0.64800
Mn1467     Mn  0.50161545  0.94568769  0.25568501     1.10660
C1468       C  0.43246304  0.94089330  0.30331913     0.98180
C1469       C  0.06952149  0.93825017  0.30506922     0.98250
N1470       N  0.02691660  0.83589216  0.28536750    -0.07050
N1471       N  0.03711860  0.81372476  0.29736131    -0.62430
N1472       N  0.46940560  0.85763647  0.30294992    -0.06370
N1473       N  0.45676901  0.85082935  0.32505262    -0.59160
N1474       N  0.46901613  0.83678728  0.28572527    -0.07680
N1475       N  0.45692189  0.81490584  0.29686113    -0.61990
N1476       N  0.02874605  0.85738131  0.30175573    -0.06670
N1477       N  0.04135119  0.85071897  0.32367376    -0.59180
Mn1478     Mn  0.49759827  0.83729994  0.25169242     1.20190
Mn1479     Mn  0.49974280  0.89011266  0.30343864     1.10090
Cl1480     Cl  0.49975683  0.89189122  0.25384410    -0.87150
C1481       C  0.04670944  0.82363084  0.32102937     0.95180
C1482       C  0.44886313  0.82441616  0.32120507     0.94980
C1483       C  0.38880354  0.92289776  0.31897290    -0.27500
C1484       C  0.40345227  0.94360340  0.30547589    -0.15580
C1485       C  0.39006396  0.96583604  0.29322122     0.35050
C1486       C  0.36251998  0.96623149  0.29375089    -0.26950
C1487       C  0.34781294  0.94560605  0.30729258    -0.16190
C1488       C  0.36127724  0.92365912  0.32011520     0.36140
N1489       N  0.34706070  0.90214096  0.33427468    -0.90440
H1490       H  0.39883839  0.90577269  0.32850632     0.17250
H1491       H  0.35250588  0.98348653  0.28449490     0.17240
N1492       N  0.40446723  0.98815500  0.28054402    -0.89470
H1493       H  0.35985370  0.88797352  0.34308573     0.34620
H1494       H  0.33619217  0.89100339  0.32010685     0.39720
H1495       H  0.41679248  0.99695349  0.29490951     0.39340
H1496       H  0.39194538  0.00403609  0.27469199     0.34230
C1497       C  0.11037810  0.93750889  0.33287613    -0.27500
C1498       C  0.09847388  0.93838763  0.30763861    -0.15580
C1499       C  0.11440174  0.93888435  0.28462260     0.35050
C1500       C  0.14174395  0.93969751  0.28671570    -0.26950
C1501       C  0.15382060  0.93972860  0.31183013    -0.16190
C1502       C  0.13789977  0.93858486  0.33524355     0.36140
N1503       N  0.14956609  0.94060494  0.36129871    -0.90440
H1504       H  0.09820657  0.93693253  0.35075288     0.17250
H1505       H  0.15355219  0.94100614  0.26860275     0.17240
N1506       N  0.10264659  0.94012594  0.25889163    -0.89470
H1507       H  0.13510595  0.94320000  0.37594027     0.34620
H1508       H  0.15856535  0.92158834  0.36519940     0.39720
H1509       H  0.11155985  0.92559023  0.24632233     0.39340
H1510       H  0.10679423  0.96015431  0.25217802     0.34230
C1511       C  0.38990608  0.53657672  0.32314986    -0.27500
C1512       C  0.40168792  0.55930947  0.30984763    -0.15580
C1513       C  0.38556486  0.58106053  0.30023923     0.35050
C1514       C  0.35828530  0.57812256  0.30199683    -0.26950
C1515       C  0.34663181  0.55387577  0.31226098    -0.16190
C1516       C  0.36247100  0.53385367  0.32481793     0.36140
N1517       N  0.35069944  0.51225028  0.34103861    -0.90440
H1518       H  0.40213646  0.52116122  0.33265013     0.17250
H1519       H  0.34598846  0.59480031  0.29493110     0.17240
N1520       N  0.39589173  0.60609609  0.28806801    -0.89470
H1521       H  0.36496815  0.49888217  0.34849255     0.34620
H1522       H  0.33838759  0.50033963  0.32896281     0.39720
H1523       H  0.41610491  0.60565223  0.28556321     0.39340
H1524       H  0.39167354  0.62267179  0.30088547     0.34230
C1525       C  0.14063994  0.57826209  0.30993147    -0.27500
C1526       C  0.15143046  0.55174310  0.30643960    -0.15580
C1527       C  0.13415734  0.52875131  0.30375119     0.35050
C1528       C  0.10709888  0.53261960  0.30337342    -0.26950
C1529       C  0.09626786  0.55902777  0.30676266    -0.16190
C1530       C  0.11344353  0.58216510  0.31019340     0.36140
N1531       N  0.10402043  0.60993511  0.31332308    -0.90440
H1532       H  0.15345365  0.59614599  0.31256109     0.17250
H1533       H  0.09437912  0.51460913  0.30095348     0.17240
N1534       N  0.14341560  0.50092645  0.30303799    -0.89470
H1535       H  0.09273244  0.61063800  0.33083314     0.34620
H1536       H  0.09232465  0.61488185  0.29685590     0.39720
H1537       H  0.15457497  0.49760604  0.32027225     0.39340
H1538       H  0.15516475  0.49870897  0.28604015     0.34230
C1539       C  0.36028895  0.93026148  0.19260716    -0.27500
C1540       C  0.34764359  0.95210915  0.20598660    -0.15580
C1541       C  0.36332000  0.97234970  0.21910074     0.35050
C1542       C  0.39077857  0.97031525  0.21850039    -0.26950
C1543       C  0.40332681  0.94823358  0.20562947    -0.16190
C1544       C  0.38771886  0.92808099  0.19234760     0.36140
N1545       N  0.39945878  0.90516569  0.17865502    -0.90440
H1546       H  0.34883096  0.91466899  0.18210933     0.17250
H1547       H  0.40253018  0.98632218  0.22796266     0.17240
N1548       N  0.35144292  0.99545457  0.23232391    -0.89470
H1549       H  0.39362228  0.90579213  0.15855703     0.34620
H1550       H  0.39221548  0.88668678  0.18717034     0.39720
H1551       H  0.34202078  0.00648101  0.21737616     0.39340
H1552       H  0.36556894  0.00919861  0.23971828     0.34230
C1553       C  0.13825655  0.93340127  0.18215505    -0.27500
C1554       C  0.15095788  0.95473568  0.19647301    -0.15580
C1555       C  0.13552771  0.97556993  0.20858335     0.35050
C1556       C  0.10819644  0.97493994  0.20547330    -0.26950
C1557       C  0.09546954  0.95177926  0.19437882    -0.16190
C1558       C  0.11075024  0.93136607  0.18132778     0.36140
N1559       N  0.09849321  0.90815791  0.16805502    -0.90440
H1560       H  0.14982186  0.91763556  0.17229060     0.17250
H1561       H  0.09659914  0.99091765  0.21499754     0.17240
N1562       N  0.14729152  0.99643764  0.22534511    -0.89470
H1563       H  0.11251054  0.89458626  0.16038978     0.34620
H1564       H  0.08842035  0.91602700  0.15150205     0.39720
H1565       H  0.15529412  0.98614109  0.24181868     0.39340
H1566       H  0.13311783  0.00967183  0.23325445     0.34230
C1567       C  0.38677593  0.57251719  0.22288119    -0.27500
C1568       C  0.40187445  0.55713411  0.20465200    -0.15580
C1569       C  0.38914649  0.54288372  0.18347301     0.35050
C1570       C  0.36168744  0.54338474  0.18192640    -0.26950
C1571       C  0.34663517  0.55785837  0.20090337    -0.16190
C1572       C  0.35930337  0.57324576  0.22096186     0.36140
N1573       N  0.34419130  0.59058412  0.23838823    -0.90440
H1574       H  0.39656054  0.58437610  0.23837182     0.17250
H1575       H  0.35195913  0.53176389  0.16617657     0.17240
N1576       N  0.40323447  0.52731246  0.16358959    -0.89470
H1577       H  0.35647564  0.60267342  0.25041105     0.34620
H1578       H  0.33301812  0.57755136  0.25090320     0.39720
H1579       H  0.42333583  0.52781745  0.16701767     0.39340
H1580       H  0.40022195  0.53692020  0.14499060     0.34230
C1581       C  0.14015478  0.57164731  0.21979615    -0.27500
C1582       C  0.15173729  0.55564893  0.19958850    -0.15580
C1583       C  0.13560324  0.54117657  0.18122112     0.35050
C1584       C  0.10815333  0.54218369  0.18411908    -0.26950
C1585       C  0.09659410  0.55770621  0.20472092    -0.16190
C1586       C  0.11273039  0.57331403  0.22214531     0.36140
N1587       N  0.10114894  0.59162172  0.24148584    -0.90440
H1588       H  0.15254261  0.58309109  0.23358049     0.17250
H1589       H  0.09574366  0.53067501  0.17040963     0.17240
N1590       N  0.14719266  0.52451563  0.16047888    -0.89470
H1591       H  0.11562446  0.60184958  0.25257237     0.34620
H1592       H  0.09037410  0.57938694  0.25498204     0.39720
H1593       H  0.15700329  0.53797500  0.14721540     0.39340
H1594       H  0.13271788  0.51436212  0.14932166     0.34230
C1595       C  0.33357340  0.85962001  0.08569253    -0.27500
C1596       C  0.32066873  0.84902195  0.06310604    -0.15580
C1597       C  0.30338541  0.86663415  0.04883979     0.35050
C1598       C  0.29928328  0.89402087  0.05802001    -0.26950
C1599       C  0.31271882  0.90455521  0.08043928    -0.16190
C1600       C  0.33035893  0.88703737  0.09412788     0.36140
N1601       N  0.34605437  0.89659459  0.11623674    -0.90440
H1602       H  0.34791996  0.84693897  0.09588669     0.17250
H1603       H  0.28502208  0.90687655  0.04796488     0.17240
N1604       N  0.29005660  0.85780110  0.02492373    -0.89470
H1605       H  0.33907449  0.88686762  0.13371799     0.34620
H1606       H  0.34486367  0.91808691  0.11893970     0.39720
H1607       H  0.29400024  0.83710927  0.02030412     0.39340
H1608       H  0.29717978  0.86990643  0.00893402     0.34230
C1609       C  0.32553139  0.61908608  0.09487302    -0.27500
C1610       C  0.31063764  0.60122615  0.07857774    -0.15580
C1611       C  0.29914231  0.61200494  0.05505225     0.35050
C1612       C  0.30338893  0.64033740  0.04823251    -0.26950
C1613       C  0.31818772  0.65803643  0.06493721    -0.16190
C1614       C  0.32870588  0.64725718  0.08891169     0.36140
N1615       N  0.34359995  0.66418771  0.10725089    -0.90440
H1616       H  0.33383534  0.61129188  0.11342112     0.17250
H1617       H  0.29630048  0.64825881  0.02922771     0.17240
N1618       N  0.28290771  0.59451647  0.03859935    -0.89470
H1619       H  0.33405871  0.66345312  0.12587375     0.34620
H1620       H  0.34368473  0.68511664  0.10149160     0.39720
H1621       H  0.29479099  0.57909118  0.03042990     0.39340
H1622       H  0.27551318  0.60586101  0.02240130     0.34230
C1623       C  0.34597232  0.87440921  0.43467738    -0.27500
C1624       C  0.32800588  0.85306944  0.44181800    -0.15580
C1625       C  0.30164666  0.85998384  0.44604405     0.35050
C1626       C  0.29399255  0.88798086  0.44298832    -0.26950
C1627       C  0.31214742  0.90894745  0.43558110    -0.16190
C1628       C  0.33837846  0.90205148  0.43159375     0.36140
N1629       N  0.35707471  0.92304273  0.42333292    -0.90440
H1630       H  0.36634795  0.86959816  0.43135786     0.17250
H1631       H  0.27347486  0.89317665  0.44446317     0.17240
N1632       N  0.28279470  0.83877677  0.45297210    -0.89470
H1633       H  0.37582487  0.91468480  0.42201253     0.34620
H1634       H  0.35225431  0.92951250  0.40391321     0.39720
H1635       H  0.28162180  0.82504410  0.43675984     0.39340
H1636       H  0.26429398  0.84749304  0.45494339     0.34230
C1637       C  0.29641750  0.61453919  0.44594455    -0.27500
C1638       C  0.31227371  0.59847666  0.42894854    -0.15580
C1639       C  0.33462401  0.61076451  0.41693945     0.35050
C1640       C  0.34002609  0.63886648  0.42128953    -0.26950
C1641       C  0.32444880  0.65509644  0.43829061    -0.16190
C1642       C  0.30246146  0.64278907  0.45099332     0.36140
N1643       N  0.28692174  0.65862575  0.46944696    -0.90440
H1644       H  0.27868037  0.60539160  0.45426203     0.17250
H1645       H  0.35752371  0.64785251  0.41225385     0.17240
N1646       N  0.35197903  0.59545582  0.39970690    -0.89470
H1647       H  0.27187944  0.64624780  0.47754734     0.34620
H1648       H  0.27795523  0.67443929  0.45846235     0.39720
H1649       H  0.34679513  0.57439221  0.39889416     0.39340
H1650       H  0.37054405  0.59612418  0.40838667     0.34230
C1651       C  0.42039073  0.82093350  0.36020902    -0.27500
C1652       C  0.43943515  0.80798226  0.34459792    -0.15580
C1653       C  0.45493018  0.78718567  0.35652772     0.35050
C1654       C  0.45324760  0.78255752  0.38464818    -0.26950
C1655       C  0.43715732  0.79916090  0.40101807    -0.16190
C1656       C  0.41928866  0.81732800  0.38813522     0.36140
N1657       N  0.40090802  0.83345066  0.40331845    -0.90440
H1658       H  0.40833725  0.83673092  0.35097534     0.17250
H1659       H  0.46579189  0.76730651  0.39393526     0.17240
N1660       N  0.47371236  0.77253619  0.34053307    -0.89470
H1661       H  0.38744932  0.84305727  0.39064044     0.34620
H1662       H  0.41140067  0.84958242  0.41249251     0.39720
H1663       H  0.46334032  0.76065164  0.32653948     0.39340
H1664       H  0.48401996  0.75847840  0.35244820     0.34230
C1665       C  0.43352662  0.79154444  0.12279163    -0.27500
C1666       C  0.43578286  0.81216316  0.10265135    -0.15580
C1667       C  0.43395695  0.84042890  0.11016867     0.35050
C1668       C  0.43091819  0.84708773  0.13718380    -0.26950
C1669       C  0.43314521  0.82694698  0.15771845    -0.16190
C1670       C  0.43179352  0.79865843  0.15031791     0.36140
N1671       N  0.42721789  0.77707725  0.16979168    -0.90440
H1672       H  0.43196819  0.76995524  0.11700265     0.17250
H1673       H  0.42982784  0.86901277  0.14209450     0.17240
N1674       N  0.43623503  0.86318120  0.09126592    -0.89470
H1675       H  0.41012124  0.76648762  0.16427330     0.34620
H1676       H  0.42320191  0.78549820  0.18863936     0.39720
H1677       H  0.44293037  0.85658362  0.07256606     0.39340
H1678       H  0.45108789  0.87649320  0.09804424     0.34230
C1679       C  0.46701206  0.70085857  0.39204177    -0.27500
C1680       C  0.44237536  0.70286524  0.40403119    -0.15580
C1681       C  0.41985550  0.70218359  0.38739204     0.35050
C1682       C  0.42245383  0.69706650  0.35973796    -0.26950
C1683       C  0.44703182  0.69240634  0.34830668    -0.16190
C1684       C  0.46947361  0.69485317  0.36454934     0.36140
N1685       N  0.49448145  0.68789541  0.35352671    -0.90440
H1686       H  0.48429857  0.70170090  0.40453137     0.17250
H1687       H  0.40506699  0.69452975  0.34760823     0.17240
N1688       N  0.39409088  0.70618858  0.39795722    -0.89470
H1689       H  0.50871290  0.68845535  0.36844876     0.34620
H1690       H  0.49917961  0.70299832  0.33910965     0.39720
H1691       H  0.39387281  0.72488714  0.40865379     0.39340
H1692       H  0.38946028  0.68974674  0.41093826     0.34230
C1693       C  0.42132668  0.66774471  0.14468181    -0.27500
C1694       C  0.43642390  0.68424841  0.16194889    -0.15580
C1695       C  0.44801844  0.70881075  0.15181698     0.35050
C1696       C  0.44753666  0.71420451  0.12380831    -0.26950
C1697       C  0.43430694  0.69621050  0.10600508    -0.16190
C1698       C  0.42025380  0.67315219  0.11698514     0.36140
N1699       N  0.40614151  0.65416538  0.09994795    -0.90440
H1700       H  0.41224719  0.64887419  0.15251888     0.17250
H1701       H  0.45829219  0.73191922  0.11581038     0.17240
N1702       N  0.46170538  0.72708493  0.16973868    -0.89470
H1703       H  0.39613752  0.63908529  0.11132753     0.34620
H1704       H  0.41990239  0.64346609  0.08844018     0.39720
H1705       H  0.44874103  0.73285822  0.18495586     0.39340
H1706       H  0.46718376  0.74534668  0.15964576     0.34230
C1707       C  0.16032478  0.86875967  0.43245067    -0.27500
C1708       C  0.17650796  0.85014466  0.44631159    -0.15580
C1709       C  0.19932573  0.86062370  0.45876686     0.35050
C1710       C  0.20691400  0.88865194  0.45400148    -0.26950
C1711       C  0.19069439  0.90669063  0.43940850    -0.16190
C1712       C  0.16645368  0.89699095  0.43038732     0.36140
N1713       N  0.14857552  0.91589862  0.41801681    -0.90440
H1714       H  0.14205853  0.86141495  0.42393775     0.17250
H1715       H  0.22576956  0.89615307  0.46084326     0.17240
N1716       N  0.21424490  0.84326368  0.47641828    -0.89470
H1717       H  0.13143267  0.90550473  0.41231044     0.34620
H1718       H  0.14317671  0.93047613  0.43252074     0.39720
H1719       H  0.20220273  0.83789369  0.49270482     0.39340
H1720       H  0.22976467  0.85467384  0.48460384     0.34230
C1721       C  0.17010051  0.61108195  0.41597285    -0.27500
C1722       C  0.18880412  0.59718560  0.43143361    -0.15580
C1723       C  0.20196447  0.61212343  0.45206921     0.35050
C1724       C  0.19567578  0.64024383  0.45646347    -0.26950
C1725       C  0.17731283  0.65393566  0.44037616    -0.16190
C1726       C  0.16505405  0.63926523  0.41936346     0.36140
N1727       N  0.14711490  0.65233353  0.40117274    -0.90440
H1728       H  0.16056054  0.60032152  0.39951137     0.17250
H1729       H  0.20447459  0.65115614  0.47320876     0.17240
N1730       N  0.22203645  0.60012349  0.46843641    -0.89470
H1731       H  0.15467915  0.65024622  0.38173346     0.34620
H1732       H  0.14600090  0.67374060  0.40450706     0.39720
H1733       H  0.22499356  0.57925654  0.46397337     0.39340
H1734       H  0.21559683  0.60067075  0.98840586     0.34230
C1735       C  0.17617076  0.87505465  0.04146883    -0.27500
C1736       C  0.18327033  0.84968449  0.05373004    -0.15580
C1737       C  0.20244514  0.84980858  0.07374637     0.35050
C1738       C  0.21190961  0.87551426  0.08320922    -0.26950
C1739       C  0.20248903  0.90102044  0.07309147    -0.16190
C1740       C  0.18577500  0.90077589  0.05082473     0.36140
N1741       N  0.17725328  0.92645417  0.03902409    -0.90440
H1742       H  0.16209498  0.87487631  0.02526700     0.17250
H1743       H  0.22571292  0.87562011  0.09965114     0.17240
N1744       N  0.21109880  0.82411374  0.08543335    -0.89470
H1745       H  0.16418239  0.92254072  0.52336988     0.34620
H1746       H  0.19362720  0.93611429  0.03028893     0.39720
H1747       H  0.19521414  0.81508203  0.09562814     0.39340
H1748       H  0.22549716  0.82793181  0.09983230     0.34230
C1749       C  0.15961305  0.63158796  0.07593406    -0.27500
C1750       C  0.17642515  0.65061465  0.06268321    -0.15580
C1751       C  0.20124922  0.64149273  0.05411968     0.35050
C1752       C  0.20878255  0.61381929  0.05987536    -0.26950
C1753       C  0.19164716  0.59511137  0.07316896    -0.16190
C1754       C  0.16677554  0.60413104  0.08101578     0.36140
N1755       N  0.14897124  0.58540353  0.09470330    -0.90440
H1756       H  0.14031191  0.63808069  0.08212972     0.17250
H1757       H  0.22842741  0.60717775  0.05506776     0.17240
N1758       N  0.21860924  0.66005610  0.03980874    -0.89470
H1759       H  0.13095124  0.59491517  0.09799741     0.34620
H1760       H  0.15656912  0.58116739  0.11371905     0.39720
H1761       H  0.20999085  0.66458709  0.02133036     0.39340
H1762       H  0.23622201  0.65013743  0.03544234     0.34230
C1763       C  0.07588989  0.79553842  0.38457990    -0.27500
C1764       C  0.05424635  0.79789428  0.40196840    -0.15580
C1765       C  0.02962385  0.80394476  0.39126362     0.35050
C1766       C  0.02711135  0.80821523  0.36346847    -0.26950
C1767       C  0.04889700  0.80738966  0.34613386    -0.16190
C1768       C  0.07345196  0.80046146  0.35670421     0.36140
N1769       N  0.09599628  0.80025844  0.33940329    -0.90440
H1770       H  0.09487408  0.79086107  0.39291664     0.17250
H1771       H  0.00850024  0.81496667  0.35558982     0.17240
N1772       N  0.00800047  0.80893196  0.40903924    -0.89470
H1773       H  0.11269852  0.79521025  0.35033801     0.34620
H1774       H  0.09319871  0.78432366  0.32541837     0.39720
H1775       H  0.00203828  0.78976089  0.41708337     0.39340
H1776       H  0.99224815  0.81712180  0.39847912     0.34230
C1777       C  0.04006613  0.79213678  0.11762993    -0.27500
C1778       C  0.06114733  0.80344286  0.10285935    -0.15580
C1779       C  0.08076745  0.81869367  0.11668929     0.35050
C1780       C  0.07754487  0.82429649  0.14419966    -0.26950
C1781       C  0.05550917  0.81477650  0.15841022    -0.16190
C1782       C  0.03676226  0.79807565  0.14514270     0.36140
N1783       N  0.01342454  0.78907135  0.15902297    -0.90440
H1784       H  0.02522787  0.78002880  0.10734106     0.17250
H1785       H  0.09154890  0.83767828  0.15430439     0.17240
N1786       N  0.10353194  0.82920409  0.10276352    -0.89470
H1787       H  0.00138967  0.77770320  0.14608858     0.34620
H1788       H  0.00282058  0.80679478  0.16413362     0.39720
H1789       H  0.11458977  0.81205264  0.09689947     0.39340
H1790       H  0.11537633  0.84089908  0.11565184     0.34230
C1791       C  0.07769418  0.67132367  0.36286147    -0.27500
C1792       C  0.06368468  0.68897781  0.34583772    -0.15400
C1793       C  0.05345620  0.71373009  0.35666938     0.35050
C1794       C  0.05362757  0.71767159  0.38496272    -0.26950
C1795       C  0.06398654  0.69731174  0.40234254    -0.16190
C1796       C  0.07679255  0.67419912  0.39082403     0.36140
N1797       N  0.08726381  0.65247296  0.40746636    -0.90440
H1798       H  0.08625345  0.65271046  0.35452958     0.17250
H1799       H  0.04473198  0.73603974  0.39345047     0.17240
N1800       N  0.04103322  0.73345656  0.33932709    -0.89470
H1801       H  0.09591457  0.63699571  0.39579310     0.34620
H1802       H  0.07154573  0.64282963  0.41742374     0.39720
H1803       H  0.05544742  0.74195973  0.32670529     0.39340
H1804       H  0.03345059  0.74984340  0.35057408     0.34230
C1805       C  0.08072066  0.67982529  0.14727623    -0.27500
C1806       C  0.05906217  0.68911919  0.16181975    -0.15580
C1807       C  0.04077795  0.70623855  0.14886142     0.35050
C1808       C  0.04311742  0.71153251  0.12106145    -0.26950
C1809       C  0.06338243  0.69989055  0.10591831    -0.16190
C1810       C  0.08347315  0.68555039  0.11965240     0.36140
N1811       N  0.10631174  0.67621092  0.10554677    -0.90440
H1812       H  0.09476935  0.66659483  0.15720095     0.17250
H1813       H  0.02815707  0.72338295  0.11094570     0.17240
N1814       N  0.01874408  0.71644658  0.16349952    -0.89470
H1815       H  0.11877905  0.66558905  0.11853448     0.34620
H1816       H  0.11661914  0.69393890  0.09908096     0.39720
H1817       H  0.00682131  0.69932918  0.16836961     0.39340
H1818       H  0.00788436  0.72925860  0.15094874     0.34230
N1819       N  0.15605269  0.71465585  0.53294857    -0.07300
N1820       N  0.17558441  0.70096599  0.54455438    -0.59420
N1821       N  0.13496294  0.69797226  0.97353919    -0.06980
N1822       N  0.13932492  0.67536963  0.95971931    -0.61550
N1823       N  0.15566611  0.71457742  0.97341509    -0.06580
N1824       N  0.17503206  0.70245626  0.96012758    -0.59400
N1825       N  0.13477814  0.69891153  0.53393004    -0.06260
N1826       N  0.13890939  0.67581750  0.54702759    -0.61900
C1827       C  0.16412583  0.67688133  0.55367584     0.94870
C1828       C  0.16402249  0.67832840  0.95122036     0.94650
N1829       N  0.05702057  0.71715720  0.97130845    -0.07490
N1830       N  0.04859362  0.71934231  0.94614306    -0.60000
N1831       N  0.07570306  0.69916893  0.53579316    -0.05610
N1832       N  0.07973756  0.68861875  0.55986990    -0.61250
N1833       N  0.05738989  0.71802730  0.53661637    -0.07520
N1834       N  0.04878013  0.72069097  0.56166976    -0.60270
N1835       N  0.07547218  0.69845919  0.97249359    -0.05250
N1836       N  0.07964742  0.68752956  0.94868089    -0.61340
Mn1837     Mn  0.10463796  0.69839647  0.50391790     1.18440
C1838       C  0.06278629  0.70041052  0.93225416     0.96960
C1839       C  0.06298722  0.70215504  0.57599475     0.97620
N1840       N  0.15620826  0.78427099  0.97220864    -0.07540
N1841       N  0.17604888  0.79928434  0.96219908    -0.63850
N1842       N  0.13633092  0.80247621  0.53025582    -0.06340
N1843       N  0.14251836  0.82682226  0.54037854    -0.64520
N1844       N  0.15643380  0.78541500  0.53121490    -0.07040
N1845       N  0.17689928  0.79880308  0.54155677    -0.64110
N1846       N  0.13453475  0.79872670  0.96996240    -0.05940
N1847       N  0.13879631  0.82205285  0.95714691    -0.64800
Mn1848     Mn  0.15721714  0.74965344  0.00263305     1.10660
C1849       C  0.16448324  0.82268757  0.95249315     0.98180
C1850       C  0.16762700  0.82453161  0.54739692     0.98250
N1851       N  0.05742113  0.78141073  0.53476455    -0.07050
N1852       N  0.04790068  0.78027829  0.55954824    -0.62430
N1853       N  0.07529674  0.79775754  0.96951023    -0.06370
N1854       N  0.07752855  0.80798702  0.94490245    -0.59160
N1855       N  0.05581631  0.77989714  0.97098026    -0.07680
N1856       N  0.04411876  0.77790126  0.94741259    -0.61990
N1857       N  0.07619950  0.80016974  0.53327975    -0.06670
N1858       N  0.07973274  0.81211247  0.55681552    -0.59180
Mn1859     Mn  0.05532427  0.74899408  0.50357306     1.20190
Mn1860     Mn  0.10504569  0.79996650  0.00076938     1.10090
Cl1861     Cl  0.10617193  0.74930646  0.50301143    -0.87150
C1862       C  0.06202212  0.79960891  0.57314318     0.95180
C1863       C  0.05779449  0.79564234  0.93139211     0.94980
N1864       N  0.44002745  0.72068609  0.53803434    -0.07300
N1865       N  0.44869925  0.72165244  0.56317189    -0.59420
N1866       N  0.42463072  0.70157342  0.97272164    -0.06980
N1867       N  0.42179483  0.69144322  0.94830128    -0.61550
N1868       N  0.44404080  0.71958726  0.97342100    -0.06580
N1869       N  0.45490857  0.72177597  0.94925656    -0.59400
N1870       N  0.42138576  0.70188788  0.53612893    -0.06260
N1871       N  0.41718553  0.68965280  0.55947627    -0.61900
C1872       C  0.43437125  0.70177372  0.57632175     0.94870
C1873       C  0.44069195  0.70419970  0.93377847     0.94650
N1874       N  0.34455380  0.71745212  0.97057662    -0.07490
N1875       N  0.32565641  0.70453324  0.95702076    -0.60000
N1876       N  0.36197004  0.70145116  0.53139659    -0.05610
N1877       N  0.35671127  0.67903976  0.54546123    -0.61250
N1878       N  0.34154578  0.71798981  0.53019956    -0.07520
N1879       N  0.32145847  0.70594414  0.54293026    -0.60270
N1880       N  0.36530536  0.70137043  0.97124574    -0.05250
N1881       N  0.36150919  0.67859322  0.95750364    -0.61340
Mn1882     Mn  0.39384727  0.70129743  0.50289710     1.18440
C1883       C  0.33705313  0.68055708  0.94854736     0.96960
C1884       C  0.33175130  0.68194586  0.55271462     0.97620
N1885       N  0.44384911  0.78246256  0.97110421    -0.07540
N1886       N  0.45236976  0.77901267  0.94598883    -0.63850
N1887       N  0.42230688  0.80301629  0.53401605    -0.06340
N1888       N  0.41828076  0.81610974  0.55676558    -0.64520
N1889       N  0.44045454  0.78415390  0.53663726    -0.07040
N1890       N  0.44903109  0.78394439  0.56180185    -0.64110
N1891       N  0.42592766  0.80174982  0.97133146    -0.05940
N1892       N  0.42233904  0.81183614  0.94707278    -0.64800
Mn1893     Mn  0.44381277  0.75179394  0.50504677     1.10660
C1894       C  0.43865873  0.79764566  0.93114793     0.98180
C1895       C  0.43521726  0.80445453  0.57389147     0.98250
N1896       N  0.34240620  0.78807306  0.52934047    -0.07050
N1897       N  0.32278177  0.80044303  0.54211305    -0.62430
N1898       N  0.36728453  0.80217256  0.96909546    -0.06370
N1899       N  0.36445213  0.82527817  0.95568451    -0.59160
N1900       N  0.34538685  0.78749976  0.96970615    -0.07680
N1901       N  0.32671085  0.80215132  0.95778890    -0.61990
N1902       N  0.36311847  0.80466750  0.52949145    -0.06670
N1903       N  0.35844026  0.82762130  0.54267746    -0.59180
Mn1904     Mn  0.34211455  0.75273482  0.49996962     1.20190
Mn1905     Mn  0.39521403  0.80299444  0.50110951     1.10090
Cl1906     Cl  0.39313364  0.75214173  0.50244946    -0.87150
C1907       C  0.33353041  0.82497786  0.55055524     0.95180
C1908       C  0.33932869  0.82561962  0.94875842     0.94980
N1909       N  0.22358674  0.53552039  0.59864438    -0.07300
N1910       N  0.21180197  0.54717076  0.57772209    -0.59420
N1911       N  0.28095706  0.55369725  0.62179993    -0.06980
N1912       N  0.29367428  0.57695650  0.61731996    -0.61550
N1913       N  0.28143653  0.53740128  0.60053671    -0.06580
N1914       N  0.29361688  0.55078372  0.58048968    -0.59400
N1915       N  0.22233414  0.55250550  0.61940073    -0.06260
N1916       N  0.20922160  0.57492642  0.61349913    -0.61900
C1917       C  0.20254746  0.57146222  0.58782008     0.94870
C1918       C  0.30159435  0.57526505  0.59179447     0.94650
N1919       N  0.28023532  0.53680810  0.70250312    -0.07490
N1920       N  0.30347754  0.53669093  0.71403874    -0.60000
N1921       N  0.21835622  0.55316965  0.68099881    -0.05610
N1922       N  0.19520808  0.56479402  0.67818112    -0.61250
N1923       N  0.21804255  0.53538003  0.70105943    -0.07520
N1924       N  0.19455972  0.53469396  0.71239196    -0.60270
N1925       N  0.28030907  0.55473531  0.68255950    -0.05250
N1926       N  0.30350768  0.56682113  0.67993018    -0.61340
Mn1927     Mn  0.25036266  0.55366616  0.65160703     1.18440
C1928       C  0.31771148  0.55580519  0.69996334     0.96960
C1929       C  0.18061884  0.55346770  0.69817521     0.97620
N1930       N  0.28237292  0.96688277  0.60221599    -0.07540
N1931       N  0.29486628  0.95387367  0.58245766    -0.63850
N1932       N  0.22366396  0.94907843  0.62111262    -0.06340
N1933       N  0.21329694  0.92485729  0.61497905    -0.64520
N1934       N  0.22462914  0.96560874  0.59982662    -0.07040
N1935       N  0.21534889  0.95195247  0.57865299    -0.64110
N1936       N  0.28207932  0.95076413  0.62379458    -0.05940
N1937       N  0.29500861  0.92778881  0.61955980    -0.64800
Mn1938     Mn  0.25306765  0.50138330  0.59934335     1.10660
C1939       C  0.30317795  0.92981184  0.59404578     0.98180
C1940       C  0.20816463  0.92660354  0.58866679     0.98250
N1941       N  0.21853222  0.97185240  0.70189970    -0.07050
N1942       N  0.19444306  0.97440566  0.71118091    -0.62430
N1943       N  0.28119556  0.95330104  0.68551126    -0.06370
N1944       N  0.30444801  0.94157732  0.68443278    -0.59160
N1945       N  0.28071893  0.97253214  0.70415900    -0.07680
N1946       N  0.30375514  0.97412322  0.71608667    -0.61990
N1947       N  0.21910748  0.95276137  0.68307990    -0.06670
N1948       N  0.19547467  0.94205272  0.67940307    -0.59180
Mn1949     Mn  0.24944270  0.00406371  0.70392587     1.20190
Mn1950     Mn  0.25142541  0.95121572  0.65397262     1.10090
Cl1951     Cl  0.25107752  0.00252995  0.65191999    -0.87150
C1952       C  0.18016279  0.95562173  0.69717878     0.95180
C1953       C  0.31849704  0.95460531  0.70368680     0.94980
N1954       N  0.21770298  0.52954487  0.80786188    -0.07300
N1955       N  0.19439863  0.52798750  0.79645348    -0.59420
N1956       N  0.27918156  0.55140769  0.82601884    -0.06980
N1957       N  0.30205229  0.56399766  0.82890514    -0.61550
N1958       N  0.28057442  0.53151007  0.80803898    -0.06580
N1959       N  0.30482221  0.53005241  0.79866909    -0.59400
N1960       N  0.21775306  0.54918677  0.82611461    -0.06260
N1961       N  0.19479875  0.56149678  0.82730643    -0.61900
C1962       C  0.18031295  0.54823430  0.80861259     0.94870
C1963       C  0.31783795  0.55077141  0.81157147     0.94650
N1964       N  0.27866489  0.53757620  0.90846855    -0.07490
N1965       N  0.29224861  0.55003279  0.92775909    -0.60000
N1966       N  0.21942600  0.55140785  0.88784645    -0.05610
N1967       N  0.20618152  0.57401471  0.89244519    -0.61250
N1968       N  0.22045748  0.53558767  0.90954981    -0.07520
N1969       N  0.20828970  0.54826632  0.92970181    -0.60270
N1970       N  0.27799126  0.55388647  0.88712061    -0.05250
N1971       N  0.29161038  0.57672446  0.89091994    -0.61340
Mn1972     Mn  0.24845723  0.55170871  0.85629930     1.18440
C1973       C  0.30060112  0.57412093  0.91596298     0.96960
C1974       C  0.19929386  0.57213177  0.91833904     0.97620
N1975       N  0.28148939  0.96761281  0.80896914    -0.07540
N1976       N  0.30459545  0.96824581  0.79679880    -0.63850
N1977       N  0.22016844  0.94731427  0.83008860    -0.06340
N1978       N  0.19764742  0.93398136  0.83296083    -0.64520
N1979       N  0.21922065  0.96518832  0.81010679    -0.07040
N1980       N  0.19580051  0.96415399  0.79888794    -0.64110
N1981       N  0.28163720  0.94939180  0.82863306    -0.05940
N1982       N  0.30462181  0.93725835  0.83018301    -0.64800
Mn1983     Mn  0.24969663  0.49849855  0.80711085     1.10660
C1984       C  0.31885083  0.94889014  0.81005811     0.98180
C1985       C  0.18257961  0.94440808  0.81327936     0.98250
N1986       N  0.22243486  0.96633400  0.91223584    -0.07050
N1987       N  0.21025337  0.95499817  0.93330341    -0.62430
N1988       N  0.28100610  0.95126427  0.89007886    -0.06370
N1989       N  0.29466814  0.92913224  0.89552393    -0.59160
N1990       N  0.28036262  0.96840229  0.91074792    -0.07680
N1991       N  0.29304690  0.95706252  0.93122366    -0.61990
N1992       N  0.22257218  0.94847093  0.89212013    -0.06670
N1993       N  0.21005904  0.92549505  0.89869378    -0.59180
Mn1994     Mn  0.25046361  0.50204779  0.91124990     1.20190
Mn1995     Mn  0.25128119  0.94886971  0.85975800     1.10090
Cl1996     Cl  0.24988102  0.50025623  0.85883201    -0.87150
C1997       C  0.20237398  0.92972005  0.92408862     0.95180
C1998       C  0.30224143  0.93288705  0.92086876     0.94980
N1999       N  0.02879748  0.66340339  0.72090757    -0.07300
N2000       N  0.04181581  0.68435092  0.70933264    -0.59420
N2001       N  0.46997146  0.64037169  0.70508873    -0.06980
N2002       N  0.45543512  0.64424324  0.68384415    -0.61550
N2003       N  0.47000962  0.66252967  0.72069019    -0.06580
N2004       N  0.45605730  0.68243938  0.70907976    -0.59400
N2005       N  0.02932234  0.64149031  0.70495513    -0.06260
N2006       N  0.04333843  0.64678477  0.68331522    -0.61900
C2007       C  0.05133793  0.67331315  0.68615901     0.94870
C2008       C  0.44660869  0.67028269  0.68630878     0.94650
N2009       N  0.46773562  0.55748889  0.72600931    -0.07490
N2010       N  0.44416866  0.54582912  0.72724093    -0.60000
N2011       N  0.03035287  0.57705987  0.70714972    -0.05610
N2012       N  0.05338477  0.57868454  0.69504526    -0.61250
N2013       N  0.03037294  0.55775279  0.72589706    -0.07520
N2014       N  0.05368919  0.54600631  0.72694993    -0.60270
N2015       N  0.46847338  0.57651896  0.70701012    -0.05250
N2016       N  0.44561206  0.57797412  0.69483774    -0.61340
Mn2017     Mn  0.99961100  0.60840638  0.70567319     1.18440
C2018       C  0.43073600  0.55837014  0.70724939     0.96960
C2019       C  0.06768634  0.55885977  0.70718139     0.97620
N2020       N  0.46987865  0.66453825  0.78793950    -0.07540
N2021       N  0.45851707  0.68611976  0.79967438    -0.63850
N2022       N  0.02847439  0.64369108  0.80448933    -0.06340
N2023       N  0.04295296  0.64861071  0.82556560    -0.64520
N2024       N  0.02849442  0.66532820  0.78810453    -0.07040
N2025       N  0.04243182  0.68602209  0.79899588    -0.64110
N2026       N  0.46891048  0.64297208  0.80444043    -0.05940
N2027       N  0.45586423  0.64906375  0.82637911    -0.64800
Mn2028     Mn  0.49928367  0.66511972  0.75433103     1.10660
C2029       C  0.44925460  0.67587460  0.82346998     0.98180
C2030       C  0.05187114  0.67476266  0.82220676     0.98250
N2031       N  0.02963671  0.55911041  0.78750474    -0.07050
N2032       N  0.05283831  0.54724744  0.78661102    -0.62430
N2033       N  0.46808690  0.57892517  0.80564016    -0.06370
N2034       N  0.44532831  0.58085604  0.81810096    -0.59160
N2035       N  0.46749486  0.55886083  0.78781644    -0.07680
N2036       N  0.44406180  0.54684577  0.78774987    -0.61990
N2037       N  0.02986558  0.57965794  0.80482090    -0.06670
N2038       N  0.05321113  0.58226600  0.81584659    -0.59180
Mn2039     Mn  0.99873689  0.55686870  0.75682123     1.20190
Mn2040     Mn  0.99884094  0.61087366  0.80515435     1.10090
Cl2041     Cl  0.99913232  0.61084641  0.75545478    -0.87150
C2042       C  0.06738966  0.56181005  0.80447635     0.95180
C2043       C  0.43055374  0.56051068  0.80706845     0.94980
N2044       N  0.03212350  0.94543232  0.72366599    -0.07300
N2045       N  0.05465968  0.95914247  0.72191753    -0.59420
N2046       N  0.46978676  0.92768944  0.70642108    -0.06980
N2047       N  0.44655381  0.92634269  0.69502881    -0.61550
N2048       N  0.47014350  0.94668600  0.72527119    -0.06580
N2049       N  0.44694927  0.95860386  0.72699741    -0.59400
N2050       N  0.03100241  0.92625348  0.70501747    -0.06260
N2051       N  0.05251247  0.92642182  0.69028963    -0.61900
C2052       C  0.06717707  0.94721095  0.70075280     0.94870
C2053       C  0.43237009  0.94581382  0.70784290     0.94650
N2054       N  0.46793824  0.84149263  0.71834482    -0.07490
N2055       N  0.45292288  0.82305673  0.70537579    -0.60000
N2056       N  0.02790490  0.86177122  0.70265308    -0.05610
N2057       N  0.04138868  0.85679982  0.68070412    -0.61250
N2058       N  0.02672825  0.83942701  0.71815343    -0.07520
N2059       N  0.03872677  0.81851964  0.70601978    -0.60270
N2060       N  0.46844857  0.86490476  0.70454317    -0.05250
N2061       N  0.45304529  0.86358132  0.68384126    -0.61340
Mn2062     Mn  0.49951879  0.89536383  0.70444879     1.18440
C2063       C  0.44328025  0.83767332  0.68393005     0.96960
C2064       C  0.04832283  0.83002254  0.68295223     0.97620
N2065       N  0.47060821  0.94311438  0.78663761    -0.07540
N2066       N  0.44760108  0.95528533  0.78560385    -0.63850
N2067       N  0.03138057  0.92126302  0.80400899    -0.06340
N2068       N  0.05407437  0.91840217  0.81626489    -0.64520
N2069       N  0.03262541  0.94154378  0.78625866    -0.07040
N2070       N  0.05638768  0.95266106  0.78597899    -0.64110
N2071       N  0.46968429  0.92224697  0.80375025    -0.05940
N2072       N  0.44611282  0.91995138  0.81461085    -0.64800
Mn2073     Mn  0.50161577  0.94569035  0.75568446     1.10660
C2074       C  0.43246564  0.94089760  0.80332394     0.98180
C2075       C  0.06951747  0.93825918  0.80506441     0.98250
N2076       N  0.02691838  0.83589407  0.78536712    -0.07050
N2077       N  0.03712033  0.81372711  0.79736180    -0.62430
N2078       N  0.46940842  0.85763663  0.80294929    -0.06370
N2079       N  0.45677437  0.85082677  0.82505281    -0.59160
N2080       N  0.46901953  0.83678818  0.78572374    -0.07680
N2081       N  0.45692828  0.81490485  0.79685938    -0.61990
N2082       N  0.02874722  0.85738373  0.80175484    -0.06670
N2083       N  0.04135164  0.85072198  0.82367357    -0.59180
Mn2084     Mn  0.49760079  0.83730282  0.75169103     1.20190
Mn2085     Mn  0.49974445  0.89011460  0.80343759     1.10090
Cl2086     Cl  0.49975792  0.89189391  0.75384304    -0.87150
C2087       C  0.04671036  0.82363385  0.82102996     0.95180
C2088       C  0.44887089  0.82441283  0.82120445     0.94980
C2089       C  0.38880585  0.92290347  0.81897838    -0.27500
C2090       C  0.40345575  0.94361198  0.80548685    -0.15580
C2091       C  0.39006940  0.96585271  0.79324406     0.35050
C2092       C  0.36252572  0.96625454  0.79378079    -0.26950
C2093       C  0.34781696  0.94562430  0.80731408    -0.16190
C2094       C  0.36127978  0.92366884  0.82012506     0.36140
N2095       N  0.34706250  0.90214643  0.83427768    -0.90440
H2096       H  0.39883952  0.90577236  0.82850298     0.17250
H2097       H  0.35251339  0.98351679  0.78453539     0.17240
N2098       N  0.40447474  0.98817298  0.78057149    -0.89470
H2099       H  0.35985486  0.88797441  0.84308282     0.34620
H2100       H  0.33619249  0.89101525  0.82010642     0.39720
H2101       H  0.41680397  0.99696329  0.79493803     0.39340
H2102       H  0.39195536  0.00405887  0.77472599     0.34230
C2103       C  0.11037492  0.93752672  0.83286804    -0.27500
C2104       C  0.09846940  0.93839943  0.80763139    -0.15580
C2105       C  0.11439538  0.93889549  0.78461386     0.35050
C2106       C  0.14173770  0.93971130  0.78670437    -0.26950
C2107       C  0.15381500  0.93974662  0.81181796    -0.16190
C2108       C  0.13789617  0.93860733  0.83523260     0.36140
N2109       N  0.14956499  0.94063824  0.86128552    -0.90440
H2110       H  0.09820482  0.93695290  0.85074587     0.17250
H2111       H  0.15354525  0.94101837  0.76859090     0.17240
N2112       N  0.10263760  0.94013599  0.75888434    -0.89470
H2113       H  0.13510633  0.94323133  0.87592914     0.34620
H2114       H  0.15857170  0.92162615  0.86518712     0.39720
H2115       H  0.11155519  0.92560625  0.74631188     0.39340
H2116       H  0.10677648  0.96016762  0.75217423     0.34230
C2117       C  0.38990598  0.53657673  0.82314821    -0.27500
C2118       C  0.40168821  0.55930940  0.80984622    -0.15580
C2119       C  0.38556550  0.58106043  0.80023717     0.35050
C2120       C  0.35828592  0.57812254  0.80199397    -0.26950
C2121       C  0.34663212  0.55387578  0.81225775    -0.16190
C2122       C  0.36247086  0.53385372  0.82481537     0.36140
N2123       N  0.35069876  0.51225043  0.84103577    -0.90440
H2124       H  0.40213605  0.52116124  0.83264891     0.17250
H2125       H  0.34598932  0.59480034  0.79492793     0.17240
N2126       N  0.39589275  0.60609586  0.78806603    -0.89470
H2127       H  0.36496722  0.49888237  0.84849032     0.34620
H2128       H  0.33838732  0.50033968  0.82895961     0.39720
H2129       H  0.41610598  0.60565192  0.78556176     0.39340
H2130       H  0.39167429  0.62267167  0.80088325     0.34230
C2131       C  0.14063997  0.57826149  0.80993009    -0.27500
C2132       C  0.15143063  0.55174272  0.80643719    -0.15580
C2133       C  0.13415765  0.52875088  0.80374830     0.35050
C2134       C  0.10709917  0.53261895  0.80337105    -0.26950
C2135       C  0.09626803  0.55902693  0.80676120    -0.16190
C2136       C  0.11344357  0.58216428  0.81019247     0.36140
N2137       N  0.10402037  0.60993415  0.81332297    -0.90440
H2138       H  0.15345359  0.59614540  0.81256010     0.17250
H2139       H  0.09437951  0.51460847  0.80095071     0.17240
N2140       N  0.14341608  0.50092611  0.80303422    -0.89470
H2141       H  0.09273248  0.61063651  0.83083313     0.34620
H2142       H  0.09232453  0.61488132  0.79685595     0.39720
H2143       H  0.15457573  0.49760543  0.82026823     0.39340
H2144       H  0.15516504  0.49870916  0.78603617     0.34230
C2145       C  0.36028987  0.93027198  0.69259684    -0.27500
C2146       C  0.34764287  0.95211022  0.70598925    -0.15580
C2147       C  0.36331791  0.97234261  0.71911682     0.35050
C2148       C  0.39077666  0.97030945  0.71851623    -0.26950
C2149       C  0.40332650  0.94823746  0.70563103    -0.16190
C2150       C  0.38771984  0.92809307  0.69233634     0.36140
N2151       N  0.39946110  0.90518766  0.67862945    -0.90440
H2152       H  0.34883316  0.91468568  0.68208917     0.17250
H2153       H  0.40252703  0.98630948  0.72799063     0.17240
N2154       N  0.35143964  0.99543684  0.73235662    -0.89470
H2155       H  0.39362507  0.90582734  0.65853170     0.34620
H2156       H  0.39221850  0.88670269  0.68713307     0.39720
H2157       H  0.34201714  0.00647565  0.71741783     0.39340
H2158       H  0.36556521  0.00917584  0.73976000     0.34230
C2159       C  0.13825611  0.93340014  0.68215901    -0.27500
C2160       C  0.15095636  0.95473612  0.69647587    -0.15580
C2161       C  0.13552538  0.97557181  0.70858287     0.35050
C2162       C  0.10819446  0.97494261  0.70546833    -0.26950
C2163       C  0.09546821  0.95178036  0.69437572    -0.16190
C2164       C  0.11074995  0.93136497  0.68132931     0.36140
N2165       N  0.09849407  0.90815456  0.66805903    -0.90440
H2166       H  0.14982215  0.91763310  0.67229749     0.17250
H2167       H  0.09659628  0.99092191  0.71498893     0.17240
N2168       N  0.14728760  0.99644090  0.72534466    -0.89470
H2169       H  0.11251203  0.89458148  0.66039741     0.34620
H2170       H  0.08842280  0.91602084  0.65150378     0.39720
H2171       H  0.15528679  0.98614716  0.74182187     0.39340
H2172       H  0.13311321  0.00967717  0.73324935     0.34230
C2173       C  0.38677600  0.57251653  0.72287938    -0.27500
C2174       C  0.40187486  0.55713336  0.70465056    -0.15580
C2175       C  0.38914731  0.54288304  0.68347128     0.35050
C2176       C  0.36168830  0.54338424  0.68192397    -0.26950
C2177       C  0.34663567  0.55785804  0.70090050    -0.16190
C2178       C  0.35930349  0.57324530  0.72095934     0.36140
N2179       N  0.34419115  0.59058382  0.73838532    -0.90440
H2180       H  0.39656031  0.58437544  0.73837020     0.17250
H2181       H  0.35196031  0.53176343  0.66617391     0.17240
N2182       N  0.40323566  0.52731171  0.66358819    -0.89470
H2183       H  0.35647532  0.60267320  0.75040825     0.34620
H2184       H  0.33301774  0.57755118  0.75090019     0.39720
H2185       H  0.42333694  0.52781650  0.66701681     0.39340
H2186       H  0.40022368  0.53691952  0.64498914     0.34230
C2187       C  0.14015546  0.57164729  0.71979334    -0.27500
C2188       C  0.15173774  0.55564984  0.69958481    -0.15580
C2189       C  0.13560337  0.54117776  0.68121752     0.35050
C2190       C  0.10815350  0.54218441  0.68411623    -0.26950
C2191       C  0.09659452  0.55770610  0.70471883    -0.16190
C2192       C  0.11273108  0.57331353  0.72214331     0.36140
N2193       N  0.10114987  0.59162038  0.74148474    -0.90440
H2194       H  0.15254348  0.58309073  0.73357777     0.17250
H2195       H  0.09574365  0.53067605  0.67040671     0.17240
N2196       N  0.14719249  0.52451768  0.66047445    -0.89470
H2197       H  0.11562553  0.60184796  0.75257132     0.34620
H2198       H  0.09037545  0.57938497  0.75498076     0.39720
H2199       H  0.15700231  0.53797772  0.64721095     0.39340
H2200       H  0.13271756  0.51436408  0.64931752     0.34230
C2201       C  0.33357569  0.85962495  0.58569477    -0.27500
C2202       C  0.32067111  0.84902864  0.56310753    -0.15580
C2203       C  0.30338937  0.86664229  0.54884098     0.35050
C2204       C  0.29928772  0.89402849  0.55802246    -0.26950
C2205       C  0.31272254  0.90456079  0.58044304    -0.16190
C2206       C  0.33036192  0.88704192  0.59413122     0.36140
N2207       N  0.34605698  0.89659765  0.61624095    -0.90440
H2208       H  0.34792146  0.84694278  0.59588881     0.17250
H2209       H  0.28502734  0.90688528  0.54796742     0.17240
N2210       N  0.29006182  0.85781124  0.52492344    -0.89470
H2211       H  0.33907684  0.88686941  0.63372144     0.34620
H2212       H  0.34486603  0.91808976  0.61894534     0.39720
H2213       H  0.29400499  0.83711954  0.52030285     0.39340
H2214       H  0.29718649  0.86991719  0.50893484     0.34230
C2215       C  0.32552277  0.61909439  0.59486911    -0.27500
C2216       C  0.31063248  0.60123189  0.57857298    -0.15580
C2217       C  0.29913881  0.61200834  0.55504560     0.35050
C2218       C  0.30338358  0.64034098  0.54822505    -0.26950
C2219       C  0.31817909  0.65804247  0.56493047    -0.16190
C2220       C  0.32869560  0.64726547  0.58890666     0.36140
N2221       N  0.34358708  0.66419815  0.60724623    -0.90440
H2222       H  0.33382596  0.61130202  0.61341828     0.17250
H2223       H  0.29629670  0.64826059  0.52921893     0.17240
N2224       N  0.28290822  0.59451722  0.53859117    -0.89470
H2225       H  0.33404433  0.66346395  0.62586829     0.34620
H2226       H  0.34367094  0.68512673  0.60148577     0.39720
H2227       H  0.29479424  0.57909311  0.53042388     0.39340
H2228       H  0.27551453  0.60586020  0.52239168     0.34230
C2229       C  0.34596847  0.87434009  0.93455400    -0.27500
C2230       C  0.32800566  0.85302105  0.94175761    -0.15580
C2231       C  0.30166034  0.85995726  0.94604242     0.35050
C2232       C  0.29401687  0.88795734  0.94298522    -0.26950
C2233       C  0.31216977  0.90890446  0.93552283    -0.16190
C2234       C  0.33838610  0.90198516  0.93147017     0.36140
N2235       N  0.35707787  0.92295681  0.92315161    -0.90440
H2236       H  0.36633376  0.86951108  0.93119644     0.17250
H2237       H  0.27350639  0.89317061  0.94451035     0.17240
N2238       N  0.28281318  0.83877055  0.95304227    -0.89470
H2239       H  0.37581889  0.91458286  0.92178847     0.34620
H2240       H  0.35221610  0.92941900  0.90374083     0.39720
H2241       H  0.28158615  0.82502415  0.93684489     0.39340
H2242       H  0.26432428  0.84750318  0.95506190     0.34230
C2243       C  0.29642370  0.61453104  0.94594259    -0.27500
C2244       C  0.31227938  0.59846987  0.92894498    -0.15580
C2245       C  0.33462996  0.61075785  0.91693671     0.35050
C2246       C  0.34003300  0.63885906  0.92128939    -0.26950
C2247       C  0.32445591  0.65508773  0.93829170    -0.16190
C2248       C  0.30246830  0.64278010  0.95099354     0.36140
N2249       N  0.28692905  0.65861563  0.96944856    -0.90440
H2250       H  0.27868635  0.60538321  0.95425943     0.17250
H2251       H  0.35753085  0.64784544  0.91225454     0.17240
N2252       N  0.35198419  0.59545015  0.89970250    -0.89470
H2253       H  0.27188662  0.64623736  0.97754823     0.34620
H2254       H  0.27796269  0.67443022  0.95846524     0.39720
H2255       H  0.34679938  0.57438687  0.89888772     0.39340
H2256       H  0.37054931  0.59611673  0.90838214     0.34230
C2257       C  0.42039639  0.82092403  0.86020532    -0.27500
C2258       C  0.43944405  0.80797667  0.84459615    -0.15580
C2259       C  0.45494120  0.78718266  0.85652723     0.35050
C2260       C  0.45325704  0.78255407  0.88464772    -0.26950
C2261       C  0.43716264  0.79915450  0.90101620    -0.16190
C2262       C  0.41929251  0.81731795  0.88813121     0.36140
N2263       N  0.40090852  0.83343744  0.90331213    -0.90440
H2264       H  0.40834126  0.83671939  0.85097059     0.17250
H2265       H  0.46580282  0.76730519  0.89393589     0.17240
N2266       N  0.47372628  0.77253597  0.84053387    -0.89470
H2267       H  0.38744879  0.84303924  0.89063187     0.34620
H2268       H  0.41139813  0.84957248  0.91248456     0.39720
H2269       H  0.46335666  0.76065036  0.82653921     0.39340
H2270       H  0.48403429  0.75847924  0.85244972     0.34230
C2271       C  0.43352769  0.79154517  0.62279254    -0.27500
C2272       C  0.43578243  0.81216377  0.60265201    -0.15580
C2273       C  0.43395558  0.84042952  0.61016917     0.35050
C2274       C  0.43091697  0.84708847  0.63718432    -0.26950
C2275       C  0.43314547  0.82694806  0.65771902    -0.16190
C2276       C  0.43179499  0.79865937  0.65031878     0.36140
N2277       N  0.42722114  0.77707813  0.66979291    -0.90440
H2278       H  0.43197014  0.76995585  0.61700384     0.17250
H2279       H  0.42982575  0.86901347  0.64209493     0.17240
N2280       N  0.43623255  0.86318173  0.59126619    -0.89470
H2281       H  0.41012499  0.76648726  0.66427505     0.34620
H2282       H  0.42320497  0.78549902  0.68864057     0.39720
H2283       H  0.44292960  0.85658434  0.57256690     0.39340
H2284       H  0.45108406  0.87649522  0.59804492     0.34230
C2285       C  0.46701262  0.70085995  0.89204091    -0.27500
C2286       C  0.44237644  0.70286289  0.90403220    -0.15580
C2287       C  0.41985560  0.70217859  0.88739449     0.35050
C2288       C  0.42245278  0.69706242  0.85974009    -0.26950
C2289       C  0.44703064  0.69240611  0.84830688    -0.16190
C2290       C  0.46947315  0.69485579  0.86454806     0.36140
N2291       N  0.49448116  0.68790194  0.85352351    -0.90440
H2292       H  0.48429989  0.70170444  0.90452931     0.17250
H2293       H  0.40506542  0.69452341  0.84761156     0.17240
N2294       N  0.39409112  0.70617994  0.89796142    -0.89470
H2295       H  0.50871316  0.68846234  0.86844495     0.34620
H2296       H  0.49917710  0.70300666  0.83910745     0.39720
H2297       H  0.39387150  0.72487826  0.90865835     0.39340
H2298       H  0.38946332  0.68973727  0.91094246     0.34230
C2299       C  0.42132401  0.66774373  0.64468017    -0.27500
C2300       C  0.43642256  0.68424706  0.66194653    -0.15580
C2301       C  0.44801714  0.70880905  0.65181384     0.35050
C2302       C  0.44753374  0.71420291  0.62380526    -0.26950
C2303       C  0.43430198  0.69620985  0.60600277    -0.16190
C2304       C  0.42024869  0.67315210  0.61698361     0.36140
N2305       N  0.40613346  0.65416702  0.59994724    -0.90440
H2306       H  0.41224459  0.64887338  0.65251767     0.17250
H2307       H  0.45828955  0.73191714  0.61580673     0.17240
N2308       N  0.46170572  0.72708286  0.66973453    -0.89470
H2309       H  0.39612942  0.63908742  0.61132740     0.34620
H2310       H  0.41989247  0.64346699  0.58843774     0.39720
H2311       H  0.44874249  0.73285658  0.68495256     0.39340
H2312       H  0.46718384  0.74534445  0.65964118     0.34230
C2313       C  0.16035057  0.86868918  0.93237970    -0.27500
C2314       C  0.17652328  0.85009007  0.94627150    -0.15580
C2315       C  0.19932180  0.86058487  0.95875221     0.35050
C2316       C  0.20690297  0.88861534  0.95398783    -0.26950
C2317       C  0.19068958  0.90664070  0.93937261    -0.16190
C2318       C  0.16646542  0.89692345  0.93032138     0.36140
N2319       N  0.14858632  0.91581899  0.91793575    -0.90440
H2320       H  0.14209692  0.86133093  0.92384871     0.17250
H2321       H  0.22574632  0.89612942  0.96085204     0.17240
N2322       N  0.21422554  0.84323955  0.97643124    -0.89470
H2323       H  0.13145632  0.90541313  0.91220913     0.34620
H2324       H  0.14316301  0.93038942  0.93243658     0.39720
H2325       H  0.20216453  0.83786961  0.99270311     0.39340
H2326       H  0.22972867  0.85466128  0.98463467     0.34230
C2327       C  0.17009086  0.61106883  0.91597500    -0.27500
C2328       C  0.18879680  0.59717372  0.93143360    -0.15580
C2329       C  0.20195654  0.61211078  0.95207002     0.35050
C2330       C  0.19566546  0.64022978  0.95646686    -0.26950
C2331       C  0.17730054  0.65392067  0.94038148    -0.16190
C2332       C  0.16504178  0.63925107  0.91936832     0.36140
N2333       N  0.14710107  0.65231934  0.90117927    -0.90440
H2334       H  0.16055164  0.60030879  0.89951281     0.17250
H2335       H  0.20446427  0.65114171  0.97321242     0.17240
N2336       N  0.22203061  0.60011170  0.96843516    -0.89470
H2337       H  0.15466492  0.65023447  0.88173956     0.34620
H2338       H  0.14598539  0.67372598  0.90451540     0.39720
H2339       H  0.22498963  0.57924548  0.96397044     0.39340
H2340       H  0.21560173  0.60068494  0.48840671     0.34230
C2341       C  0.17616629  0.87506817  0.54146915    -0.27500
C2342       C  0.18326849  0.84969722  0.55372696    -0.15580
C2343       C  0.20244697  0.84981958  0.57373960     0.35050
C2344       C  0.21191221  0.87552436  0.58320332    -0.26950
C2345       C  0.20248876  0.90103096  0.57308993    -0.16190
C2346       C  0.18577137  0.90078853  0.55082592     0.36140
N2347       N  0.17724724  0.92646786  0.53902933    -0.90440
H2348       H  0.16208808  0.87489105  0.52526954     0.17250
H2349       H  0.22571817  0.87562910  0.59964290     0.17240
N2350       N  0.21110360  0.82412379  0.58542224    -0.89470
H2351       H  0.16419054  0.92252568  0.02336311     0.34620
H2352       H  0.19361967  0.93612950  0.53029275     0.39720
H2353       H  0.19522110  0.81509050  0.59561930     0.39340
H2354       H  0.22550459  0.82794079  0.59981867     0.34230
C2355       C  0.15962618  0.63160275  0.57592693    -0.27500
C2356       C  0.17643918  0.65062808  0.56267526    -0.15580
C2357       C  0.20126304  0.64150423  0.55411300     0.35050
C2358       C  0.20879474  0.61383023  0.55986989    -0.26950
C2359       C  0.19165780  0.59512340  0.57316313    -0.16190
C2360       C  0.16678676  0.60414536  0.58100938     0.36140
N2361       N  0.14898070  0.58541944  0.59469659    -0.90440
H2362       H  0.14032534  0.63809675  0.58212214     0.17250
H2363       H  0.22843929  0.60718726  0.55506299     0.17240
N2364       N  0.21862449  0.66006621  0.53980225    -0.89470
H2365       H  0.13096127  0.59493253  0.59798996     0.34620
H2366       H  0.15657762  0.58118288  0.61371268     0.39720
H2367       H  0.21000677  0.66459772  0.52132368     0.39340
H2368       H  0.23623668  0.65014616  0.53543636     0.34230
C2369       C  0.07589200  0.79553867  0.88457960    -0.27500
C2370       C  0.05424887  0.79789369  0.90196880    -0.15580
C2371       C  0.02962625  0.80394550  0.89126481     0.35050
C2372       C  0.02711334  0.80821809  0.86346995    -0.26950
C2373       C  0.04889853  0.80739288  0.84613472    -0.16190
C2374       C  0.07345357  0.80046347  0.85670418     0.36140
N2375       N  0.09599749  0.80026068  0.83940271    -0.90440
H2376       H  0.09487629  0.79086035  0.89291560     0.17250
H2377       H  0.00850214  0.81497022  0.85559206     0.17240
N2378       N  0.00800314  0.80893159  0.90904110    -0.89470
H2379       H  0.11269984  0.79521144  0.85033677     0.34620
H2380       H  0.09319920  0.78432671  0.82541707     0.39720
H2381       H  0.00204083  0.78975996  0.91708390     0.39340
H2382       H  0.99225072  0.81712230  0.89848175     0.34230
C2383       C  0.04006984  0.79213395  0.61763058    -0.27500
C2384       C  0.06115006  0.80344144  0.60285955    -0.15580
C2385       C  0.08076955  0.81869361  0.61668907     0.35050
C2386       C  0.07754697  0.82429665  0.64419938    -0.26950
C2387       C  0.05551189  0.81477558  0.65841032    -0.16190
C2388       C  0.03676598  0.79807299  0.64514335     0.36140
N2389       N  0.01342914  0.78906700  0.65902414    -0.90440
H2390       H  0.02523217  0.78002482  0.60734203     0.17250
H2391       H  0.09155033  0.83767956  0.65430372     0.17240
N2392       N  0.10353332  0.82920521  0.60276287    -0.89470
H2393       H  0.00139500  0.77769758  0.64609009     0.34620
H2394       H  0.00282389  0.80678961  0.66413458     0.39720
H2395       H  0.11459185  0.81205435  0.59689859     0.39340
H2396       H  0.11537739  0.84090085  0.61565096     0.34230
C2397       C  0.07769044  0.67131955  0.86286541    -0.27500
C2398       C  0.06368392  0.68897528  0.84584046    -0.15400
C2399       C  0.05345649  0.71372836  0.85667162     0.35050
C2400       C  0.05362617  0.71766956  0.88496511    -0.26950
C2401       C  0.06398170  0.69730826  0.90234568    -0.16190
C2402       C  0.07678601  0.67419420  0.89082797     0.36140
N2403       N  0.08725247  0.65246586  0.90747093    -0.90440
H2404       H  0.08624903  0.65270571  0.85453411     0.17250
H2405       H  0.04473171  0.73603860  0.89345233     0.17240
N2406       N  0.04103633  0.73345619  0.83932858    -0.89470
H2407       H  0.09590187  0.63698731  0.89579822     0.34620
H2408       H  0.07153206  0.64282496  0.91742657     0.39720
H2409       H  0.05545205  0.74195801  0.82670778     0.39340
H2410       H  0.03345451  0.74984380  0.85057513     0.34230
C2411       C  0.08072459  0.67982228  0.64727389    -0.27500
C2412       C  0.05906493  0.68911615  0.66181580    -0.15580
C2413       C  0.04078098  0.70623418  0.64885542     0.35050
C2414       C  0.04312299  0.71152846  0.62105572    -0.26950
C2415       C  0.06338982  0.69988762  0.60591428    -0.16190
C2416       C  0.08347926  0.68554724  0.61965009     0.36140
N2417       N  0.10631871  0.67620736  0.60554625    -0.90440
H2418       H  0.09477273  0.66659219  0.65719990     0.17250
H2419       H  0.02816327  0.72337864  0.61093871     0.17240
N2420       N  0.01874488  0.71644061  0.66349104    -0.89470
H2421       H  0.11878472  0.66558505  0.61853495     0.34620
H2422       H  0.11662704  0.69393510  0.59908140     0.39720
H2423       H  0.00682325  0.69932223  0.66836086     0.39340
H2424       H  0.00788488  0.72925060  0.65093851     0.34230
N2425       N  0.65604667  0.21466018  0.03294131    -0.07300
N2426       N  0.67557943  0.20097064  0.04454598    -0.59420
N2427       N  0.63496519  0.19800745  0.47351845    -0.06980
N2428       N  0.63933088  0.17541239  0.45968831    -0.61550
N2429       N  0.65566382  0.21461906  0.47339617    -0.06580
N2430       N  0.67503073  0.20250982  0.46010057    -0.59400
N2431       N  0.63477379  0.19891320  0.03391956    -0.06260
N2432       N  0.63890694  0.17581721  0.04701334    -0.61900
C2433       C  0.66412295  0.17688292  0.05366315     0.94870
C2434       C  0.66402621  0.17838298  0.45118536     0.94650
N2435       N  0.55702002  0.21716858  0.47130073    -0.07490
N2436       N  0.54859049  0.21935382  0.44613615    -0.60000
N2437       N  0.57569810  0.19916837  0.03578670    -0.05610
N2438       N  0.57973445  0.18861704  0.05986275    -0.61250
N2439       N  0.55738351  0.21802528  0.03661219    -0.07520
N2440       N  0.54877461  0.22068638  0.06166604    -0.60270
N2441       N  0.57547497  0.19847428  0.47248260    -0.05250
N2442       N  0.57964998  0.18754704  0.44866898    -0.61340
Mn2443     Mn  0.60463206  0.19840295  0.00390931     1.18440
C2444       C  0.56278539  0.20042566  0.43224462     0.96960
C2445       C  0.56298354  0.20215081  0.07598923     0.97620
N2446       N  0.65619656  0.28431297  0.47221084    -0.07540
N2447       N  0.67603399  0.29934068  0.46221400    -0.63850
N2448       N  0.63631822  0.30248089  0.03026481    -0.06340
N2449       N  0.64250616  0.32682572  0.04038997    -0.64520
N2450       N  0.65642134  0.28541972  0.03122109    -0.07040
N2451       N  0.67688721  0.29880645  0.04156329    -0.64110
N2452       N  0.63451839  0.29876097  0.46996600    -0.05940
N2453       N  0.63877457  0.32209570  0.45716293    -0.64800
Mn2454     Mn  0.65721241  0.24968312  0.50262469     1.10660
C2455       C  0.66446254  0.32274506  0.45251732     0.98180
C2456       C  0.66761520  0.32453406  0.04740675     0.98250
N2457       N  0.55741011  0.28140956  0.03477030    -0.07050
N2458       N  0.54789039  0.28027367  0.05955426    -0.62430
N2459       N  0.57528146  0.29777362  0.46951711    -0.06370
N2460       N  0.57751308  0.30800386  0.44490962    -0.59160
N2461       N  0.55580458  0.27990853  0.47098511    -0.07680
N2462       N  0.54410924  0.27791051  0.44741658    -0.61990
N2463       N  0.57618659  0.30017085  0.03328691    -0.06670
N2464       N  0.57971920  0.31211178  0.05682347    -0.59180
Mn2465     Mn  0.55531491  0.24899713  0.00357380     1.20190
Mn2466     Mn  0.60503147  0.29998373  0.50077504     1.10090
Cl2467     Cl  0.60616183  0.24931388  0.00301223    -0.87150
C2468       C  0.56201045  0.29960464  0.07315044     0.95180
C2469       C  0.55778248  0.29565491  0.43139765     0.94980
N2470       N  0.94002716  0.22068246  0.03802948    -0.07300
N2471       N  0.94869907  0.22164698  0.06316693    -0.59420
N2472       N  0.92462223  0.20158233  0.47271169    -0.06980
N2473       N  0.92178743  0.19145362  0.44829066    -0.61550
N2474       N  0.94403516  0.21959239  0.47341412    -0.06580
N2475       N  0.95490620  0.22178015  0.44925115    -0.59400
N2476       N  0.92138417  0.20188564  0.03612317    -0.06260
N2477       N  0.91718315  0.18964991  0.05947016    -0.61900
C2478       C  0.93436981  0.20176892  0.07631604     0.94870
C2479       C  0.94068839  0.20420719  0.43377072     0.94650
N2480       N  0.84454926  0.21748313  0.47056625    -0.07490
N2481       N  0.82565168  0.20457740  0.45699990    -0.60000
N2482       N  0.86196805  0.20145354  0.03139108    -0.05610
N2483       N  0.85670750  0.17904038  0.04545250    -0.61250
N2484       N  0.84154537  0.21799460  0.03019671    -0.07520
N2485       N  0.82145726  0.20594900  0.04292640    -0.60270
N2486       N  0.86529619  0.20139449  0.47123376    -0.05250
N2487       N  0.86149687  0.17862486  0.45748081    -0.61340
Mn2488     Mn  0.89384470  0.20130095  0.00289138     1.18440
C2489       C  0.83704381  0.18060208  0.44851867     0.96960
C2490       C  0.83174798  0.18194779  0.05270683     0.97620
N2491       N  0.94385031  0.28246786  0.47110514    -0.07540
N2492       N  0.95236673  0.27901727  0.44598844    -0.63850
N2493       N  0.92231457  0.30301595  0.03401849    -0.06340
N2494       N  0.91829062  0.31610920  0.05676839    -0.64520
N2495       N  0.94046011  0.28415111  0.03663845    -0.07040
N2496       N  0.94903738  0.28393970  0.06180285    -0.64110
N2497       N  0.92593240  0.30175890  0.47133563    -0.05940
N2498       N  0.92234248  0.31184717  0.44707798    -0.64800
Mn2499     Mn  0.94381454  0.25179324  0.00504505     1.10660
C2500       C  0.93865716  0.29765378  0.43115038     0.98180
C2501       C  0.93522617  0.30445138  0.07389342     0.98250
N2502       N  0.84241290  0.28807857  0.02934659    -0.07050
N2503       N  0.82278911  0.30044863  0.04211992    -0.62430
N2504       N  0.86728979  0.30219521  0.46910005    -0.06370
N2505       N  0.86445865  0.32530968  0.45570281    -0.59160
N2506       N  0.84538735  0.28753073  0.46971428    -0.07680
N2507       N  0.82671054  0.30219793  0.45781600    -0.61990
N2508       N  0.86312604  0.30467186  0.02949850    -0.06670
N2509       N  0.85844892  0.32762489  0.04268622    -0.59180
Mn2510     Mn  0.84211755  0.25274515  0.99997126     1.20190
Mn2511     Mn  0.89522015  0.30299962  0.00111410     1.10090
Cl2512     Cl  0.89313590  0.25214626  0.00244977    -0.87150
C2513       C  0.83353892  0.32498209  0.05056386     0.95180
C2514       C  0.83933144  0.32566737  0.44879239     0.94980
N2515       N  0.72358656  0.03552149  0.09863857    -0.07300
N2516       N  0.71180259  0.04717311  0.07771630    -0.59420
N2517       N  0.78095893  0.05369458  0.12179461    -0.06980
N2518       N  0.79367529  0.07695437  0.11731443    -0.61550
N2519       N  0.78143599  0.03739994  0.10053030    -0.06580
N2520       N  0.79361349  0.05078438  0.08048250    -0.59400
N2521       N  0.72233612  0.05250735  0.11939461    -0.06260
N2522       N  0.70922592  0.07492989  0.11349276    -0.61900
C2523       C  0.70255104  0.07146623  0.08781386     0.94870
C2524       C  0.80159201  0.07526529  0.09178772     0.94650
N2525       N  0.78023422  0.03680487  0.20249910    -0.07490
N2526       N  0.80347574  0.03668431  0.21403584    -0.60000
N2527       N  0.71835714  0.05317072  0.18099279    -0.05610
N2528       N  0.69520960  0.06479639  0.17817444    -0.61250
N2529       N  0.71804192  0.03538101  0.20105333    -0.07520
N2530       N  0.69455878  0.03469615  0.21238514    -0.60270
N2531       N  0.78031107  0.05473144  0.18255495    -0.05250
N2532       N  0.80351152  0.06681365  0.17992659    -0.61340
Mn2533     Mn  0.75036451  0.05366517  0.15160161     1.18440
C2534       C  0.81771286  0.05579587  0.19996092     0.96960
C2535       C  0.68061926  0.05347075  0.19816808     0.97620
N2536       N  0.78237430  0.46688313  0.10222296    -0.07540
N2537       N  0.79486922  0.45387555  0.08246481    -0.63850
N2538       N  0.72366699  0.44907369  0.12112033    -0.06340
N2539       N  0.71329914  0.42485284  0.11498732    -0.64520
N2540       N  0.72462980  0.46560453  0.09983475    -0.07040
N2541       N  0.71534671  0.45194949  0.07866186    -0.64110
N2542       N  0.78208240  0.45076470  0.12380165    -0.05940
N2543       N  0.79501424  0.42779104  0.11956717    -0.64800
Mn2544     Mn  0.75306591  0.00138162  0.09933768     1.10660
C2545       C  0.80318354  0.42981498  0.09405321     0.98180
C2546       C  0.70816351  0.42660042  0.08867579     0.98250
N2547       N  0.71853531  0.47184800  0.20190669    -0.07050
N2548       N  0.69444565  0.47440129  0.21118636    -0.62430
N2549       N  0.78119920  0.45330089  0.18551797    -0.06370
N2550       N  0.80445139  0.44157652  0.18444029    -0.59160
N2551       N  0.78072274  0.47253319  0.20416458    -0.07680
N2552       N  0.80375899  0.47412469  0.21609225    -0.61990
N2553       N  0.71911123  0.45275689  0.18308693    -0.06670
N2554       N  0.69547844  0.44204856  0.17940862    -0.59180
Mn2555     Mn  0.74944384  0.50406242  0.20393203     1.20190
Mn2556     Mn  0.75142884  0.45121333  0.15397975     1.10090
Cl2557     Cl  0.75107664  0.50252770  0.15192647    -0.87150
C2558       C  0.68016572  0.45561771  0.19718336     0.95180
C2559       C  0.81850056  0.45460550  0.20369351     0.94980
N2560       N  0.71769588  0.02952414  0.30790831    -0.07300
N2561       N  0.69439275  0.02795352  0.29649808    -0.59420
N2562       N  0.77918774  0.05140545  0.32603450    -0.06980
N2563       N  0.80205598  0.06400344  0.32891322    -0.61550
N2564       N  0.78058892  0.03147912  0.30809719    -0.06580
N2565       N  0.80483859  0.03000414  0.29873627    -0.59400
N2566       N  0.71774861  0.04919159  0.32612512    -0.06260
N2567       N  0.69479896  0.06151206  0.32730102    -0.61900
C2568       C  0.68031092  0.04822519  0.30862502     0.94870
C2569       C  0.81784918  0.05074683  0.31160813     0.94650
N2570       N  0.77866512  0.03760291  0.40849899    -0.07490
N2571       N  0.79225690  0.05008162  0.42777010    -0.60000
N2572       N  0.71944041  0.05142440  0.38786976    -0.05610
N2573       N  0.70619222  0.07403271  0.39245103    -0.61250
N2574       N  0.72047849  0.03562427  0.40959608    -0.07520
N2575       N  0.70830893  0.04832459  0.42973359    -0.60270
N2576       N  0.77798554  0.05389392  0.38712909    -0.05250
N2577       N  0.79161019  0.07673296  0.39090456    -0.61340
Mn2578     Mn  0.74845428  0.05171013  0.35627567     1.18440
C2579       C  0.80060752  0.07415596  0.41594763     0.96960
C2580       C  0.69931016  0.07217687  0.41834832     0.97620
N2581       N  0.78148092  0.46758749  0.30892042    -0.07540
N2582       N  0.80458565  0.46820383  0.29674628    -0.63850
N2583       N  0.72017998  0.44731728  0.33009087    -0.06340
N2584       N  0.69765558  0.43399338  0.33298090    -0.64520
N2585       N  0.71923027  0.46516341  0.31007563    -0.07040
N2586       N  0.69580763  0.46411146  0.29886351    -0.64110
N2587       N  0.78163893  0.44939584  0.32862136    -0.05940
N2588       N  0.80462693  0.43727081  0.33017807    -0.64800
Mn2589     Mn  0.74970044  0.99850046  0.30723512     1.10660
C2590       C  0.81884768  0.44887273  0.31003175     0.98180
C2591       C  0.68258607  0.44439163  0.31328631     0.98250
N2592       N  0.72241715  0.46636372  0.41219262    -0.07050
N2593       N  0.71023612  0.45505564  0.43327408    -0.62430
N2594       N  0.78102872  0.45128035  0.39007371    -0.06370
N2595       N  0.79468527  0.42915150  0.39554487    -0.59160
N2596       N  0.78036757  0.46843183  0.41072256    -0.07680
N2597       N  0.79303417  0.45711198  0.43122069    -0.61990
N2598       N  0.72257383  0.44847443  0.39211012    -0.06670
N2599       N  0.71007489  0.42549749  0.39870856    -0.59180
Mn2600     Mn  0.75047595  0.00205285  0.41136395     1.20190
Mn2601     Mn  0.75129674  0.44887326  0.35979240     1.10090
Cl2602     Cl  0.74982683  0.00026500  0.35914367    -0.87150
C2603       C  0.70237632  0.42975711  0.42409330     0.95180
C2604       C  0.80223927  0.43292788  0.42089297     0.94980
N2605       N  0.52879270  0.16340726  0.22090225    -0.07300
N2606       N  0.54181197  0.18435387  0.20932695    -0.59420
N2607       N  0.96997040  0.14036823  0.20508343    -0.06980
N2608       N  0.95543309  0.14423916  0.18383939    -0.61550
N2609       N  0.97000984  0.16252701  0.22068388    -0.06580
N2610       N  0.95605731  0.18243642  0.20907335    -0.59400
N2611       N  0.52931897  0.14149287  0.20495159    -0.06260
N2612       N  0.54333679  0.14678555  0.18331252    -0.61900
C2613       C  0.55133588  0.17331423  0.18615493     0.94870
C2614       C  0.94660735  0.17027897  0.18630337     0.94650
N2615       N  0.96773779  0.05748525  0.22600751    -0.07490
N2616       N  0.94417199  0.04582289  0.22724001    -0.60000
N2617       N  0.53035330  0.07706310  0.20714996    -0.05610
N2618       N  0.55338432  0.07868725  0.19504369    -0.61250
N2619       N  0.53037500  0.05775797  0.22589907    -0.07520
N2620       N  0.55369172  0.04601232  0.22695149    -0.60270
N2621       N  0.96847338  0.07651482  0.20700779    -0.05250
N2622       N  0.94561153  0.07796728  0.19483606    -0.61340
Mn2623     Mn  0.49960960  0.10840713  0.20567118     1.18440
C2624       C  0.93073764  0.05836185  0.20724847     0.96960
C2625       C  0.56768724  0.05886416  0.20718063     0.97620
N2626       N  0.96988234  0.16453895  0.28793293    -0.07540
N2627       N  0.95852128  0.18612063  0.29966812    -0.63850
N2628       N  0.52846958  0.14370395  0.30448498    -0.06340
N2629       N  0.54294845  0.14862631  0.32556049    -0.64520
N2630       N  0.52848847  0.16533930  0.28809811    -0.07040
N2631       N  0.54242540  0.18603490  0.29898702    -0.64110
N2632       N  0.96891488  0.14297304  0.30443418    -0.05940
N2633       N  0.95586943  0.14906486  0.32637327    -0.64800
Mn2634     Mn  0.99928576  0.16511929  0.25432284     1.10660
C2635       C  0.94925985  0.17587570  0.32346425     0.98180
C2636       C  0.55186562  0.17477824  0.32219874     0.98250
N2637       N  0.52963802  0.05912223  0.28750672    -0.07050
N2638       N  0.55283982  0.04726013  0.28661371    -0.62430
N2639       N  0.96809322  0.07892654  0.30563793    -0.06370
N2640       N  0.94533687  0.08085524  0.31810339    -0.59160
N2641       N  0.96750006  0.05886137  0.28781515    -0.07680
N2642       N  0.94406815  0.04684356  0.28775370    -0.61990
N2643       N  0.52986675  0.07967222  0.30482024    -0.06670
N2644       N  0.55321293  0.08228357  0.31584428    -0.59180
Mn2645     Mn  0.49873864  0.05687449  0.25682348     1.20190
Mn2646     Mn  0.49883881  0.11088400  0.30515194     1.10090
Cl2647     Cl  0.49913022  0.11085197  0.25545258    -0.87150
C2648       C  0.56739122  0.06182620  0.30447614     0.95180
C2649       C  0.93056254  0.06050734  0.30707506     0.94980
N2650       N  0.53212702  0.44542829  0.22367387    -0.07300
N2651       N  0.55466323  0.45913823  0.22192533    -0.59420
N2652       N  0.96978996  0.42768757  0.20642642    -0.06980
N2653       N  0.94655703  0.42634081  0.19503413    -0.61550
N2654       N  0.97014688  0.44668410  0.22527664    -0.06580
N2655       N  0.94695258  0.45860211  0.22700260    -0.59400
N2656       N  0.53100545  0.42624961  0.20502524    -0.06260
N2657       N  0.55251532  0.42641788  0.19029709    -0.61900
C2658       C  0.56718017  0.44720683  0.20076034     0.94870
C2659       C  0.93237337  0.44581188  0.20784812     0.94650
N2660       N  0.96793606  0.34149127  0.21834925    -0.07490
N2661       N  0.95292175  0.32305534  0.20537917    -0.60000
N2662       N  0.52790461  0.36176721  0.20266096    -0.05610
N2663       N  0.54138782  0.35679431  0.18071198    -0.61250
N2664       N  0.52672581  0.33942306  0.21816124    -0.07520
N2665       N  0.53872218  0.31851436  0.20602759    -0.60270
N2666       N  0.96844807  0.36490318  0.20454729    -0.05250
N2667       N  0.95304658  0.36357954  0.18384396    -0.61340
Mn2668     Mn  0.99952023  0.39536056  0.20445438     1.18440
C2669       C  0.94328121  0.33767160  0.18393235     0.96960
C2670       C  0.54831929  0.33001621  0.18296008     0.97620
N2671       N  0.97061063  0.44311298  0.28664306    -0.07540
N2672       N  0.94760298  0.45528244  0.28560488    -0.63850
N2673       N  0.53138223  0.42125869  0.30401750    -0.06340
N2674       N  0.55407543  0.41839478  0.31627403    -0.64520
N2675       N  0.53262998  0.44153865  0.28626647    -0.07040
N2676       N  0.55639416  0.45265186  0.28598669    -0.64110
N2677       N  0.96968465  0.42224553  0.30375555    -0.05940
N2678       N  0.94611109  0.41994851  0.31461132    -0.64800
Mn2679     Mn  0.00161939  0.44568662  0.25569093     1.10660
C2680       C  0.93246473  0.44089384  0.30332167     0.98180
C2681       C  0.56952163  0.43824893  0.30507340     0.98250
N2682       N  0.52691464  0.33589130  0.28537312    -0.07050
N2683       N  0.53711770  0.31372430  0.29736639    -0.62430
N2684       N  0.96940443  0.35763667  0.30295307    -0.06370
N2685       N  0.95676682  0.35082970  0.32505521    -0.59160
N2686       N  0.96901442  0.33678792  0.28572798    -0.07680
N2687       N  0.95691876  0.31490689  0.29686289    -0.61990
N2688       N  0.52874465  0.35738076  0.30176081    -0.06670
N2689       N  0.54135126  0.35071902  0.32367809    -0.59180
Mn2690     Mn  0.99759699  0.33729982  0.25169584     1.20190
Mn2691     Mn  0.99974315  0.39011124  0.30344316     1.10090
Cl2692     Cl  0.99975785  0.39189063  0.25384857    -0.87150
C2693       C  0.54670978  0.32363090  0.32103362     0.95180
C2694       C  0.94885972  0.32441704  0.32120675     0.94980
C2695       C  0.88880350  0.42289822  0.31897095    -0.27500
C2696       C  0.90345360  0.44360420  0.30547602    -0.15580
C2697       C  0.89006637  0.46583759  0.29322123     0.35050
C2698       C  0.86252228  0.46623399  0.29374953    -0.26950
C2699       C  0.84781390  0.44560808  0.30728894    -0.16190
C2700       C  0.86127708  0.42366004  0.32011120     0.36140
N2701       N  0.84705928  0.40214121  0.33426840    -0.90440
H2702       H  0.89883738  0.40577246  0.32850432     0.17250
H2703       H  0.85250909  0.48349001  0.28449427     0.17240
N2704       N  0.90447089  0.48815633  0.28054526    -0.89470
H2705       H  0.85985144  0.38797299  0.34307957     0.34620
H2706       H  0.83619157  0.39100473  0.32009913     0.39720
H2707       H  0.91679548  0.49695417  0.29491168     0.39340
H2708       H  0.89194977  0.50403777  0.27469241     0.34230
C2709       C  0.61037939  0.43752079  0.33287887    -0.27500
C2710       C  0.59847389  0.43838478  0.30764156    -0.15580
C2711       C  0.61440016  0.43886645  0.28462425     0.35050
C2712       C  0.64174251  0.43968467  0.28671528    -0.26950
C2713       C  0.65382047  0.43972929  0.31182907    -0.16190
C2714       C  0.63790118  0.43859729  0.33524404     0.36140
N2715       N  0.64956948  0.44062999  0.36129745    -0.90440
H2716       H  0.59820885  0.43695509  0.35075654     0.17250
H2717       H  0.65354975  0.44098337  0.26860106     0.17240
N2718       N  0.60264273  0.44008548  0.25889317    -0.89470
H2719       H  0.63511058  0.44323043  0.37593938     0.34620
H2720       H  0.65857036  0.42161586  0.36520517     0.39720
H2721       H  0.61155800  0.42554284  0.24633295     0.39340
H2722       H  0.60678635  0.46010910  0.25216527     0.34230
C2723       C  0.88992289  0.03657815  0.32318353    -0.27500
C2724       C  0.90169787  0.05930195  0.30986078    -0.15580
C2725       C  0.88556925  0.08104204  0.30023974     0.35050
C2726       C  0.85829040  0.07809911  0.30200313    -0.26950
C2727       C  0.84664301  0.05385955  0.31229086    -0.16190
C2728       C  0.86248852  0.03385095  0.32485998     0.36140
N2729       N  0.85072470  0.01225788  0.34109943    -0.90440
H2730       H  0.90215826  0.02117187  0.33269107     0.17250
H2731       H  0.84598930  0.09476749  0.29492494     0.17240
N2732       N  0.89589014  0.10607188  0.28805226    -0.89470
H2733       H  0.86499807  0.99890075  0.34856230     0.34620
H2734       H  0.83841511  0.00033202  0.32903509     0.39720
H2735       H  0.91610397  0.10563323  0.28555149     0.39340
H2736       H  0.89166564  0.12265571  0.30085765     0.34230
C2737       C  0.64064461  0.07826620  0.30991436    -0.27500
C2738       C  0.65142933  0.05174104  0.30644256    -0.15580
C2739       C  0.63415042  0.02875234  0.30377058     0.35050
C2740       C  0.60709328  0.03262663  0.30339305    -0.26950
C2741       C  0.59626848  0.05903977  0.30676314    -0.16190
C2742       C  0.61344877  0.08217612  0.31017483     0.36140
N2743       N  0.60403069  0.10995082  0.31328376    -0.90440
H2744       H  0.65346222  0.09614921  0.31253012     0.17250
H2745       H  0.59436950  0.01461729  0.30098643     0.17240
N2746       N  0.64340169  0.00092532  0.30306933    -0.89470
H2747       H  0.59274453  0.11067049  0.33079423     0.34620
H2748       H  0.59233282  0.11488555  0.29681483     0.39720
H2749       H  0.65456445  0.99761121  0.32030244     0.39340
H2750       H  0.65514405  0.99869636  0.28606761     0.34230
C2751       C  0.86029140  0.43026098  0.19261784    -0.27500
C2752       C  0.84764636  0.45210985  0.20599578    -0.15580
C2753       C  0.86332322  0.47235233  0.21910659     0.35050
C2754       C  0.89078186  0.47031830  0.21850501    -0.26950
C2755       C  0.90332978  0.44823512  0.20563618    -0.16190
C2756       C  0.88772138  0.42808089  0.19235706     0.36140
N2757       N  0.89946091  0.40516429  0.17866613    -0.90440
H2758       H  0.84883307  0.41466712  0.18212224     0.17250
H2759       H  0.90253380  0.48632668  0.22796459     0.17240
N2760       N  0.85144640  0.49545870  0.23232750    -0.89470
H2761       H  0.89362351  0.40578856  0.15856837     0.34620
H2762       H  0.89221820  0.38668618  0.18718358     0.39720
H2763       H  0.84202230  0.50648224  0.21737909     0.39340
H2764       H  0.86557255  0.50920447  0.23971874     0.34230
C2765       C  0.63825820  0.43339959  0.18215918    -0.27500
C2766       C  0.65095908  0.45473297  0.19647897    -0.15580
C2767       C  0.63552849  0.47556667  0.20858963     0.35050
C2768       C  0.60819746  0.47493758  0.20547788    -0.26950
C2769       C  0.59547084  0.45177724  0.19438222    -0.16190
C2770       C  0.61075188  0.43136462  0.18133079     0.36140
N2771       N  0.59849514  0.40815715  0.16805666    -0.90440
H2772       H  0.64982379  0.41763429  0.17229448     0.17250
H2773       H  0.59660001  0.49091439  0.21500335     0.17240
N2774       N  0.64729161  0.49643225  0.22535412    -0.89470
H2775       H  0.61251264  0.39458588  0.16039109     0.34620
H2776       H  0.58842259  0.41602709  0.15150386     0.39720
H2777       H  0.65529352  0.48613311  0.24182648     0.39340
H2778       H  0.63311767  0.50966541  0.23326462     0.34230
C2779       C  0.88677757  0.07251208  0.22287415    -0.27500
C2780       C  0.90187644  0.05712204  0.20465096    -0.15580
C2781       C  0.88914868  0.04286036  0.18347891     0.35050
C2782       C  0.86168962  0.04336084  0.18193141    -0.26950
C2783       C  0.84663711  0.05784464  0.20090081    -0.16190
C2784       C  0.85930494  0.07323855  0.22095524     0.36140
N2785       N  0.84419233  0.09057906  0.23837942    -0.90440
H2786       H  0.89656216  0.08437780  0.23835980     0.17250
H2787       H  0.85196155  0.03173313  0.16618611     0.17240
N2788       N  0.90323695  0.02727912  0.16360311    -0.89470
H2789       H  0.85647608  0.10266776  0.25040354     0.34620
H2790       H  0.83301806  0.07754753  0.25089459     0.39720
H2791       H  0.92333826  0.02778594  0.16703143     0.39340
H2792       H  0.90022468  0.03687743  0.14499956     0.34230
C2793       C  0.64015722  0.07165538  0.21978443    -0.27500
C2794       C  0.65173831  0.05565481  0.19957760    -0.15580
C2795       C  0.63560288  0.04118062  0.18121286     0.35050
C2796       C  0.60815310  0.04218711  0.18411350    -0.26950
C2797       C  0.59659534  0.05771086  0.20471542    -0.16190
C2798       C  0.61273297  0.07332156  0.22213604     0.36140
N2799       N  0.60115287  0.09163135  0.24147539    -0.90440
H2800       H  0.65254603  0.08310083  0.23356657     0.17250
H2801       H  0.59574244  0.03067688  0.17040619     0.17240
N2802       N  0.64719088  0.02451866  0.16047058    -0.89470
H2803       H  0.61562941  0.10186257  0.25255765     0.34620
H2804       H  0.59038117  0.07939759  0.25497518     0.39720
H2805       H  0.65699998  0.03797756  0.14720543     0.39340
H2806       H  0.63271533  0.01436405  0.14931533     0.34230
C2807       C  0.83358381  0.35962974  0.08570273    -0.27500
C2808       C  0.82067981  0.34903323  0.06311528    -0.15580
C2809       C  0.80339810  0.36664643  0.04884816     0.35050
C2810       C  0.79929573  0.39403242  0.05802950    -0.26950
C2811       C  0.81272966  0.40456484  0.08045050    -0.16190
C2812       C  0.83036917  0.38704653  0.09413914     0.36140
N2813       N  0.84606324  0.39660260  0.11624948    -0.90440
H2814       H  0.84792952  0.34694783  0.09589717     0.17250
H2815       H  0.78503531  0.40688887  0.04797411     0.17240
N2816       N  0.79007131  0.35781526  0.02493020    -0.89470
H2817       H  0.83908266  0.38687424  0.13372973     0.34620
H2818       H  0.84487176  0.41809469  0.11895376     0.39720
H2819       H  0.79401486  0.33712372  0.02030947     0.39340
H2820       H  0.79719615  0.36992149  0.00894187     0.34230
C2821       C  0.82551666  0.11909770  0.09486350    -0.27500
C2822       C  0.81062801  0.10123392  0.07856690    -0.15580
C2823       C  0.79913567  0.11200951  0.05503842     0.35050
C2824       C  0.80338045  0.14034218  0.04821722    -0.26950
C2825       C  0.81817463  0.15804480  0.06492290    -0.16190
C2826       C  0.82868957  0.14726871  0.08890022     0.36140
N2827       N  0.84357994  0.16420216  0.10724008    -0.90440
H2828       H  0.83381923  0.11130624  0.11341331     0.17250
H2829       H  0.79629470  0.14826095  0.02921037     0.17240
N2830       N  0.78290672  0.09451748  0.03858322    -0.89470
H2831       H  0.83403606  0.16346873  0.12586155     0.34620
H2832       H  0.84366415  0.18513050  0.10147877     0.39720
H2833       H  0.79479374  0.07909356  0.03041715     0.39340
H2834       H  0.77551382  0.10585985  0.02238294     0.34230
C2835       C  0.84597807  0.37441570  0.43466682    -0.27500
C2836       C  0.82801204  0.35307875  0.44181553    -0.15580
C2837       C  0.80165424  0.35999540  0.44604759     0.35050
C2838       C  0.79400102  0.38799223  0.44298954    -0.26950
C2839       C  0.81215540  0.40895598  0.43557401    -0.16190
C2840       C  0.83838506  0.40205776  0.43158060     0.36140
N2841       N  0.85708051  0.42304650  0.42331182    -0.90440
H2842       H  0.86635268  0.36960254  0.43134391     0.17250
H2843       H  0.77348402  0.39318977  0.44446941     0.17240
N2844       N  0.78280301  0.33879096  0.45298536    -0.89470
H2845       H  0.87582986  0.41468709  0.42198782     0.34620
H2846       H  0.85225574  0.42951343  0.40389243     0.39720
H2847       H  0.78162363  0.32505580  0.43677554     0.39340
H2848       H  0.76430360  0.34750905  0.45496226     0.34230
C2849       C  0.79643308  0.11456980  0.44592397    -0.27500
C2850       C  0.81227991  0.09852128  0.42890678    -0.15580
C2851       C  0.83461126  0.11082461  0.41687421     0.35050
C2852       C  0.84000614  0.13892737  0.42122824    -0.26950
C2853       C  0.82444028  0.15514183  0.43825368    -0.16190
C2854       C  0.80246974  0.14282035  0.45097445     0.36140
N2855       N  0.78694217  0.15864328  0.46945024    -0.90440
H2856       H  0.77870953  0.10540986  0.45425994     0.17250
H2857       H  0.85749224  0.14792494  0.41217955     0.17240
N2858       N  0.85195652  0.09552997  0.39961928    -0.89470
H2859       H  0.77191184  0.14625622  0.47756123     0.34620
H2860       H  0.77795947  0.17445763  0.45848104     0.39720
H2861       H  0.84678208  0.07446390  0.39880584     0.39340
H2862       H  0.87053011  0.09620594  0.40827942     0.34230
C2863       C  0.92038758  0.32093452  0.36021081    -0.27500
C2864       C  0.93943123  0.30798282  0.34459910    -0.15580
C2865       C  0.95492595  0.28718562  0.35652828     0.35050
C2866       C  0.95324454  0.28255796  0.38464883    -0.26950
C2867       C  0.93715584  0.29916247  0.40101929    -0.16190
C2868       C  0.91928674  0.31732943  0.38813711     0.36140
N2869       N  0.90090704  0.33345243  0.40332105    -0.90440
H2870       H  0.90833409  0.33673218  0.35097753     0.17250
H2871       H  0.96578886  0.26730670  0.39393549     0.17240
N2872       N  0.97370685  0.27253516  0.34053289    -0.89470
H2873       H  0.88744749  0.34305834  0.39064352     0.34620
H2874       H  0.91140025  0.34958467  0.41249369     0.39720
H2875       H  0.96333373  0.26065108  0.32653976     0.39340
H2876       H  0.98401426  0.25847685  0.35244761     0.34230
C2877       C  0.93353615  0.29154201  0.12279460    -0.27500
C2878       C  0.93579213  0.31216036  0.10265401    -0.15580
C2879       C  0.93396460  0.34042621  0.11017072     0.35050
C2880       C  0.93092255  0.34708551  0.13718533    -0.26950
C2881       C  0.93314936  0.32694551  0.15772054    -0.16190
C2882       C  0.93180094  0.29865657  0.15032060     0.36140
N2883       N  0.92722680  0.27707531  0.16979468    -0.90440
H2884       H  0.93197927  0.26995263  0.11700609     0.17250
H2885       H  0.92983013  0.36901055  0.14209554     0.17240
N2886       N  0.93624368  0.36317814  0.09126763    -0.89470
H2887       H  0.91013188  0.26648303  0.16427531     0.34620
H2888       H  0.92320812  0.28549620  0.18864177     0.39720
H2889       H  0.94294503  0.35658045  0.07257001     0.39340
H2890       H  0.95109322  0.37649272  0.09804886     0.34230
C2891       C  0.96701463  0.20085703  0.39203796    -0.27500
C2892       C  0.94237727  0.20286950  0.40402486    -0.15580
C2893       C  0.91985890  0.20219219  0.38738349     0.35050
C2894       C  0.92245870  0.19707338  0.35972982    -0.26950
C2895       C  0.94703678  0.19240734  0.34830116    -0.16190
C2896       C  0.96947753  0.19484986  0.36454603     0.36140
N2897       N  0.99448508  0.18788649  0.35352609    -0.90440
H2898       H  0.98430008  0.20169595  0.40452926     0.17250
H2899       H  0.90507253  0.19454019  0.34759844     0.17240
N2900       N  0.89409426  0.20620353  0.39794607    -0.89470
H2901       H  0.00871597  0.18844640  0.36844881     0.34620
H2902       H  0.99918606  0.20298644  0.33910713     0.39720
H2903       H  0.89387900  0.22490290  0.40864143     0.39340
H2904       H  0.88945980  0.18976372  0.41092798     0.34230
C2905       C  0.92132127  0.16774088  0.14467524    -0.27500
C2906       C  0.93642179  0.18424317  0.16194080    -0.15580
C2907       C  0.94801829  0.20880375  0.15180722     0.35050
C2908       C  0.94753447  0.21419702  0.12379866    -0.26950
C2909       C  0.93430031  0.19620518  0.10599699    -0.16190
C2910       C  0.92024511  0.17314923  0.11697862     0.36140
N2911       N  0.90612688  0.15416598  0.09994299    -0.90440
H2912       H  0.91224053  0.14887154  0.15251338     0.17250
H2913       H  0.95829198  0.23190976  0.11579942     0.17240
N2914       N  0.96170962  0.22707636  0.16972683    -0.89470
H2915       H  0.89612176  0.13908768  0.11132373     0.34620
H2916       H  0.91988407  0.14346418  0.08843274     0.39720
H2917       H  0.94874798  0.23285114  0.18494589     0.39340
H2918       H  0.96718766  0.24533764  0.15963304     0.34230
C2919       C  0.66031298  0.36877189  0.43245012    -0.27500
C2920       C  0.67649556  0.35015618  0.44631073    -0.15580
C2921       C  0.69931575  0.36063276  0.45876300     0.35050
C2922       C  0.70690667  0.38865939  0.45399521    -0.26950
C2923       C  0.69068788  0.40669875  0.43940237    -0.16190
C2924       C  0.66644533  0.39700200  0.43038361     0.36140
N2925       N  0.64856883  0.41591118  0.41801263    -0.90440
H2926       H  0.64204494  0.36142871  0.42393999     0.17250
H2927       H  0.72576379  0.39615854  0.46083460     0.17240
N2928       N  0.71423461  0.34327195  0.47641403    -0.89470
H2929       H  0.63142455  0.40551922  0.41230756     0.34620
H2930       H  0.64317245  0.43049055  0.43251577     0.39720
H2931       H  0.70219329  0.33790443  0.49270199     0.39340
H2932       H  0.72975609  0.35468084  0.48459770     0.34230
C2933       C  0.67011769  0.11112269  0.41595021    -0.27500
C2934       C  0.68881708  0.09723251  0.43142192    -0.15580
C2935       C  0.70196909  0.11217659  0.45205899     0.35050
C2936       C  0.69567505  0.14029611  0.45644474    -0.26950
C2937       C  0.67731328  0.15398009  0.44035046    -0.16190
C2938       C  0.66506349  0.13930476  0.41933590     0.36140
N2939       N  0.64712464  0.15236605  0.40114020    -0.90440
H2940       H  0.66058393  0.10035705  0.39948812     0.17250
H2941       H  0.70446705  0.15121349  0.47319076     0.17240
N2942       N  0.72203762  0.10018515  0.46843673    -0.89470
H2943       H  0.65469417  0.15028054  0.38170288     0.34620
H2944       H  0.64600331  0.17377274  0.40447392     0.39720
H2945       H  0.72500351  0.07931874  0.46397928     0.39340
H2946       H  0.71559472  0.10074806  0.98840419     0.34230
C2947       C  0.67615583  0.37507026  0.04148059    -0.27500
C2948       C  0.68325790  0.34969843  0.05373659    -0.15580
C2949       C  0.70243909  0.34981822  0.07374643     0.35050
C2950       C  0.71190730  0.37552170  0.08320985    -0.26950
C2951       C  0.70248418  0.40102928  0.07309872    -0.16190
C2952       C  0.68576401  0.40078932  0.05083694     0.36140
N2953       N  0.67724046  0.42646987  0.03904235    -0.90440
H2954       H  0.66207566  0.37489487  0.02528277     0.17250
H2955       H  0.72571542  0.37562469  0.09964752     0.17240
N2956       N  0.71109564  0.32412120  0.08542661    -0.89470
H2957       H  0.66417327  0.42254483  0.52338444     0.34620
H2958       H  0.69361255  0.43613030  0.03030386     0.39720
H2959       H  0.69521393  0.31508856  0.09562552     0.39340
H2960       H  0.72549884  0.32793640  0.09982114     0.34230
C2961       C  0.65962585  0.13160455  0.07591608    -0.27500
C2962       C  0.67643795  0.15063076  0.06266429    -0.15580
C2963       C  0.70126323  0.14150864  0.05410460     0.35050
C2964       C  0.70879695  0.11383557  0.05986371    -0.26950
C2965       C  0.69166082  0.09512775  0.07315695    -0.16190
C2966       C  0.66678875  0.10414828  0.08100152     0.36140
N2967       N  0.64898378  0.08542203  0.09468978    -0.90440
H2968       H  0.64032402  0.13809704  0.08210934     0.17250
H2969       H  0.72844224  0.10719407  0.05505815     0.17240
N2970       N  0.71862403  0.16007138  0.03979398    -0.89470
H2971       H  0.63096358  0.09493389  0.09798206     0.34620
H2972       H  0.65658071  0.08118770  0.11370633     0.39720
H2973       H  0.71000680  0.16460144  0.02131486     0.39340
H2974       H  0.73623713  0.15015254  0.03542936     0.34230
C2975       C  0.57588710  0.29554805  0.38458846    -0.27500
C2976       C  0.55424104  0.29790168  0.40197386    -0.15580
C2977       C  0.52961866  0.30394568  0.39126541     0.35050
C2978       C  0.52710864  0.30821268  0.36346963    -0.26950
C2979       C  0.54889669  0.30739028  0.34613814    -0.16190
C2980       C  0.57345161  0.30046780  0.35671209     0.36140
N2981       N  0.59599796  0.30026721  0.33941391    -0.90440
H2982       H  0.59487108  0.29087502  0.39292803     0.17250
H2983       H  0.50849714  0.31495921  0.35558791     0.17240
N2984       N  0.50799230  0.30893022  0.40903783    -0.89470
H2985       H  0.61269980  0.29522324  0.35035113     0.34620
H2986       H  0.59320456  0.28433048  0.32543019     0.39720
H2987       H  0.50203083  0.28975830  0.41708062     0.39340
H2988       H  0.49224087  0.31711865  0.39847533     0.34230
C2989       C  0.54005735  0.29213185  0.11763761    -0.27500
C2990       C  0.56113973  0.30343486  0.10286693    -0.15580
C2991       C  0.58076267  0.31868180  0.11669672     0.35050
C2992       C  0.57754186  0.32428430  0.14420725    -0.26950
C2993       C  0.55550491  0.31476817  0.15841793    -0.16190
C2994       C  0.53675498  0.29807103  0.14515051     0.36140
N2995       N  0.51341580  0.28907147  0.15903094    -0.90440
H2996       H  0.52521687  0.28002709  0.10734857     0.17250
H2997       H  0.59154820  0.33766342  0.15431191     0.17240
N2998       N  0.60352837  0.32918868  0.10277054    -0.89470
H2999       H  0.50137858  0.27770645  0.14609638     0.34620
H3000       H  0.50281531  0.30679711  0.16414210     0.39720
H3001       H  0.61458289  0.31203543  0.09690474     0.39340
H3002       H  0.61537536  0.34088055  0.11565898     0.34230
C3003       C  0.57769199  0.17134192  0.36285298    -0.27500
C3004       C  0.56367881  0.18899383  0.34583034    -0.15400
C3005       C  0.55344534  0.21374303  0.35666352     0.35050
C3006       C  0.55361598  0.21768306  0.38495709    -0.26950
C3007       C  0.56397940  0.19732490  0.40233582    -0.16190
C3008       C  0.57679050  0.17421601  0.39081577     0.36140
N3009       N  0.58726769  0.15249198  0.40745667    -0.90440
H3010       H  0.58625436  0.15273071  0.35452000     0.17250
H3011       H  0.54471658  0.23604861  0.39344583     0.17240
N3012       N  0.54101829  0.23346749  0.33932229    -0.89470
H3013       H  0.59592274  0.13701821  0.39578247     0.34620
H3014       H  0.57155215  0.14284319  0.41741343     0.39720
H3015       H  0.55543093  0.24197538  0.32670151     0.39340
H3016       H  0.53343135  0.24985128  0.35057025     0.34230
C3017       C  0.58072124  0.17981618  0.14726794    -0.27500
C3018       C  0.55906425  0.18911517  0.16181101    -0.15580
C3019       C  0.54078270  0.20623667  0.14885142     0.35050
C3020       C  0.54312357  0.21152873  0.12105129    -0.26950
C3021       C  0.56338732  0.19988297  0.10590876    -0.16190
C3022       C  0.58347511  0.18553924  0.11964372     0.36140
N3023       N  0.60631189  0.17619400  0.10553874    -0.90440
H3024       H  0.59476762  0.16658361  0.15719353     0.17250
H3025       H  0.52816535  0.22338176  0.11093505     0.17240
N3026       N  0.51874989  0.21644897  0.16348848    -0.89470
H3027       H  0.61877656  0.16556931  0.11852699     0.34620
H3028       H  0.61662328  0.19391937  0.09907295     0.39720
H3029       H  0.50682510  0.19933348  0.16835955     0.39340
H3030       H  0.50789164  0.22926182  0.15093699     0.34230
N3031       N  0.65604687  0.21466083  0.53294125    -0.07300
N3032       N  0.67557970  0.20097147  0.54454593    -0.59420
N3033       N  0.63496493  0.19800695  0.97351851    -0.06980
N3034       N  0.63933075  0.17541193  0.95968831    -0.61550
N3035       N  0.65566348  0.21461868  0.97339623    -0.06580
N3036       N  0.67503043  0.20250961  0.96010057    -0.59400
N3037       N  0.63477408  0.19891372  0.53391949    -0.06260
N3038       N  0.63890738  0.17581774  0.54701329    -0.61900
C3039       C  0.66412339  0.17688368  0.55366309     0.94870
C3040       C  0.66402607  0.17838272  0.95118533     0.94650
N3041       N  0.55701955  0.21716806  0.97130115    -0.07490
N3042       N  0.54858998  0.21935347  0.94613660    -0.60000
N3043       N  0.57569837  0.19916900  0.53578637    -0.05610
N3044       N  0.57973492  0.18861813  0.55986256    -0.61250
N3045       N  0.55738370  0.21802583  0.53661165    -0.07520
N3046       N  0.54877490  0.22068730  0.56166546    -0.60270
N3047       N  0.57547454  0.19847379  0.97248286    -0.05250
N3048       N  0.57964954  0.18754677  0.94866915    -0.61340
Mn3049     Mn  0.60463237  0.19840347  0.50390916     1.18440
C3050       C  0.56278490  0.20042547  0.93224489     0.96960
C3051       C  0.56298402  0.20215212  0.57598885     0.97620
N3052       N  0.65619628  0.28431253  0.97221096    -0.07540
N3053       N  0.67603372  0.29934028  0.96221419    -0.63850
N3054       N  0.63631842  0.30248130  0.53026477    -0.06340
N3055       N  0.64250634  0.32682610  0.54038999    -0.64520
N3056       N  0.65642157  0.28542016  0.53122098    -0.07040
N3057       N  0.67688743  0.29880689  0.54156318    -0.64110
N3058       N  0.63451810  0.29876050  0.96996606    -0.05940
N3059       N  0.63877429  0.32209526  0.95716303    -0.64800
Mn3060     Mn  0.65721214  0.24968264  0.00262481     1.10660
C3061       C  0.66446228  0.32274467  0.95251751     0.98180
C3062       C  0.66761539  0.32453446  0.54740672     0.98250
N3063       N  0.55741023  0.28141004  0.53476991    -0.07050
N3064       N  0.54789038  0.28027403  0.55955381    -0.62430
N3065       N  0.57528113  0.29777304  0.96951723    -0.06370
N3066       N  0.57751264  0.30800324  0.94490971    -0.59160
N3067       N  0.55580422  0.27990799  0.97098537    -0.07680
N3068       N  0.54410875  0.27791000  0.94741689    -0.61990
N3069       N  0.57618678  0.30017126  0.53328674    -0.06670
N3070       N  0.57971935  0.31211199  0.55682340    -0.59180
Mn3071     Mn  0.55531519  0.24899764  0.50357335     1.20190
Mn3072     Mn  0.60503120  0.29998325  0.00077513     1.10090
Cl3073     Cl  0.60616211  0.24931439  0.50301202    -0.87150
C3074       C  0.56201046  0.29960481  0.57315020     0.95180
C3075       C  0.55778195  0.29565433  0.93139784     0.94980
N3076       N  0.94002665  0.22068200  0.53802833    -0.07300
N3077       N  0.94869833  0.22164631  0.56316585    -0.59420
N3078       N  0.92462245  0.20158193  0.97271303    -0.06980
N3079       N  0.92178708  0.19145373  0.94829186    -0.61550
N3080       N  0.94403535  0.21959206  0.97341525    -0.06580
N3081       N  0.95490579  0.22178029  0.94925206    -0.59400
N3082       N  0.92138360  0.20188529  0.53612170    -0.06260
N3083       N  0.91718232  0.18964939  0.55946857    -0.61900
C3084       C  0.93436890  0.20176821  0.57631466     0.94870
C3085       C  0.94068764  0.20420766  0.93377167     0.94650
N3086       N  0.84454950  0.21748216  0.97056768    -0.07490
N3087       N  0.82565205  0.20457639  0.95700116    -0.60000
N3088       N  0.86196761  0.20145380  0.53138934    -0.05610
N3089       N  0.85670710  0.17904062  0.54545071    -0.61250
N3090       N  0.84154502  0.21799500  0.53019527    -0.07520
N3091       N  0.82145697  0.20594949  0.54292514    -0.60270
N3092       N  0.86529641  0.20139350  0.97123552    -0.05250
N3093       N  0.86149720  0.17862377  0.95748271    -0.61340
Mn3094     Mn  0.89384430  0.20130130  0.50288978     1.18440
C3095       C  0.83704427  0.18060100  0.94852022     0.96960
C3096       C  0.83174769  0.18194816  0.55270533     0.97620
N3097       N  0.94385018  0.28246746  0.97110513    -0.07540
N3098       N  0.95236673  0.27901688  0.94598845    -0.63850
N3099       N  0.92231438  0.30301561  0.53401847    -0.06340
N3100       N  0.91829043  0.31610871  0.55676844    -0.64520
N3101       N  0.94045982  0.28415063  0.53663832    -0.07040
N3102       N  0.94903703  0.28393898  0.56180274    -0.64110
N3103       N  0.92593208  0.30175830  0.97133545    -0.05940
N3104       N  0.92234210  0.31184638  0.94707772    -0.64800
Mn3105     Mn  0.94381433  0.25179320  0.50504445     1.10660
C3106       C  0.93865702  0.29765318  0.93115021     0.98180
C3107       C  0.93522585  0.30445062  0.57389341     0.98250
N3108       N  0.84241271  0.28807892  0.52934592    -0.07050
N3109       N  0.82278887  0.30044900  0.54211915    -0.62430
N3110       N  0.86728962  0.30219419  0.96910028    -0.06370
N3111       N  0.86445839  0.32530848  0.95570278    -0.59160
N3112       N  0.84538716  0.28752978  0.96971494    -0.07680
N3113       N  0.82671024  0.30219693  0.95781676    -0.61990
N3114       N  0.86312594  0.30467206  0.52949821    -0.06670
N3115       N  0.85844882  0.32762500  0.54268608    -0.59180
Mn3116     Mn  0.84211740  0.25274582  0.49997020     1.20190
Mn3117     Mn  0.89522021  0.30299999  0.50111400     1.10090
Cl3118     Cl  0.89313573  0.25214661  0.50244889    -0.87150
C3119       C  0.83353873  0.32498231  0.55056343     0.95180
C3120       C  0.83933110  0.32566623  0.94879273     0.94980
N3121       N  0.72358907  0.03552294  0.59863720    -0.07300
N3122       N  0.71180427  0.04717426  0.57771528    -0.59420
N3123       N  0.78096266  0.05369399  0.62179331    -0.06980
N3124       N  0.79367933  0.07695355  0.61731302    -0.61550
N3125       N  0.78143854  0.03739976  0.60052869    -0.06580
N3126       N  0.79361539  0.05078440  0.58048059    -0.59400
N3127       N  0.72233974  0.05250923  0.61939299    -0.06260
N3128       N  0.70922958  0.07493185  0.61349136    -0.61900
C3129       C  0.70255349  0.07146771  0.58781285     0.94870
C3130       C  0.80159486  0.07526490  0.59178591     0.94650
N3131       N  0.78023666  0.03680463  0.70249793    -0.07490
N3132       N  0.80347789  0.03668334  0.71403530    -0.60000
N3133       N  0.71836040  0.05317306  0.68099091    -0.05610
N3134       N  0.69521320  0.06479936  0.67817194    -0.61250
N3135       N  0.71804420  0.03538325  0.70105137    -0.07520
N3136       N  0.69456072  0.03469893  0.71238245    -0.60270
N3137       N  0.78031457  0.05473107  0.68255368    -0.05250
N3138       N  0.80351547  0.06681246  0.67992584    -0.61340
Mn3139     Mn  0.75036812  0.05366602  0.65160008     1.18440
C3140       C  0.81771599  0.05579427  0.69996061     0.96960
C3141       C  0.68062204  0.05347402  0.69816511     0.97620
N3142       N  0.78237442  0.46688344  0.60222280    -0.07540
N3143       N  0.79486929  0.45387583  0.58246462    -0.63850
N3144       N  0.72366707  0.44907408  0.62112012    -0.06340
N3145       N  0.71329919  0.42485325  0.61498709    -0.64520
N3146       N  0.72462994  0.46560492  0.59983455    -0.07040
N3147       N  0.71534686  0.45194991  0.57866164    -0.64110
N3148       N  0.78208248  0.45076498  0.62380147    -0.05940
N3149       N  0.79501426  0.42779128  0.61956695    -0.64800
Mn3150     Mn  0.75306752  0.00138227  0.59933622     1.10660
C3151       C  0.80318354  0.42981522  0.59405299     0.98180
C3152       C  0.70816362  0.42660085  0.58867556     0.98250
N3153       N  0.71853525  0.47184822  0.70190643    -0.07050
N3154       N  0.69444554  0.47440142  0.71118603    -0.62430
N3155       N  0.78119917  0.45330106  0.68551781    -0.06370
N3156       N  0.80445133  0.44157663  0.68444016    -0.59160
N3157       N  0.78072271  0.47253334  0.70416444    -0.07680
N3158       N  0.80375895  0.47412478  0.71609215    -0.61990
N3159       N  0.71911127  0.45275709  0.68308669    -0.06670
N3160       N  0.69547854  0.44204864  0.67940834    -0.59180
Mn3161     Mn  0.74944384  0.50406261  0.70393188     1.20190
Mn3162     Mn  0.75142890  0.45121360  0.65397954     1.10090
Cl3163     Cl  0.75107673  0.50252796  0.65192633    -0.87150
C3164       C  0.68016573  0.45561773  0.69718302     0.95180
C3165       C  0.81850049  0.45460556  0.70369341     0.94980
N3166       N  0.71769921  0.02952403  0.80790780    -0.07300
N3167       N  0.69439667  0.02795449  0.79649639    -0.59420
N3168       N  0.77919063  0.05140363  0.82603486    -0.06980
N3169       N  0.80205885  0.06400170  0.82891318    -0.61550
N3170       N  0.78059159  0.03147717  0.80809767    -0.06580
N3171       N  0.80484115  0.03000212  0.79873643    -0.59400
N3172       N  0.71775202  0.04919154  0.82612452    -0.06260
N3173       N  0.69480293  0.06151318  0.82729927    -0.61900
C3174       C  0.68031532  0.04822693  0.80862255     0.94870
C3175       C  0.81785183  0.05074498  0.81160797     0.94650
N3176       N  0.77866651  0.03760194  0.90849964    -0.07490
N3177       N  0.79225791  0.05008071  0.92777099    -0.60000
N3178       N  0.71944259  0.05142464  0.88786943    -0.05610
N3179       N  0.70619460  0.07403318  0.89245037    -0.61250
N3180       N  0.72047983  0.03562443  0.90959577    -0.07520
N3181       N  0.70830984  0.04832485  0.92973294    -0.60270
N3182       N  0.77798778  0.05389265  0.88712949    -0.05250
N3183       N  0.79161268  0.07673150  0.89090505    -0.61340
Mn3184     Mn  0.74845696  0.05170939  0.85627570     1.18440
C3185       C  0.80060925  0.07415472  0.91594842     0.96960
C3186       C  0.69931176  0.07217733  0.91834746     0.97620
N3187       N  0.78148127  0.46758714  0.80892053    -0.07540
N3188       N  0.80458603  0.46820351  0.79674642    -0.63850
N3189       N  0.72018011  0.44731703  0.83009090    -0.06340
N3190       N  0.69765564  0.43399325  0.83298089    -0.64520
N3191       N  0.71923049  0.46516320  0.81007569    -0.07040
N3192       N  0.69580786  0.46411138  0.79886353    -0.64110
N3193       N  0.78163926  0.44939543  0.82862143    -0.05940
N3194       N  0.80462729  0.43727041  0.83017813    -0.64800
Mn3195     Mn  0.74970232  0.99849932  0.80723554     1.10660
C3196       C  0.81884808  0.44887238  0.81003185     0.98180
C3197       C  0.68258618  0.44439160  0.81328629     0.98250
N3198       N  0.72241734  0.46636323  0.91219268    -0.07050
N3199       N  0.71023629  0.45505514  0.93327413    -0.62430
N3200       N  0.78102888  0.45127968  0.89007382    -0.06370
N3201       N  0.79468521  0.42915067  0.89554501    -0.59160
N3202       N  0.78036774  0.46843111  0.91072271    -0.07680
N3203       N  0.79303413  0.45711107  0.93122089    -0.61990
N3204       N  0.72257399  0.44847396  0.89211015    -0.06670
N3205       N  0.71007502  0.42549703  0.89870858    -0.59180
Mn3206     Mn  0.75047671  0.00205247  0.91136441     1.20190
Mn3207     Mn  0.75129694  0.44887281  0.85979244     1.10090
Cl3208     Cl  0.74982814  0.00026425  0.85914412    -0.87150
C3209       C  0.70237645  0.42975663  0.92409333     0.95180
C3210       C  0.80223909  0.43292690  0.92089317     0.94980
N3211       N  0.52879398  0.16340865  0.72090135    -0.07300
N3212       N  0.54181345  0.18435530  0.70932640    -0.59420
N3213       N  0.96996835  0.14037136  0.70508414    -0.06980
N3214       N  0.95543134  0.14424079  0.68383962    -0.61550
N3215       N  0.97000610  0.16253057  0.72068403    -0.06580
N3216       N  0.95605275  0.18243873  0.70907265    -0.59400
N3217       N  0.52931953  0.14149465  0.70495015    -0.06260
N3218       N  0.54333708  0.14678762  0.68331095    -0.61900
C3219       C  0.55133678  0.17331605  0.68615398     0.94870
C3220       C  0.94660408  0.17028010  0.68630274     0.94650
N3221       N  0.96774082  0.05748896  0.72601088    -0.07490
N3222       N  0.94417565  0.04582513  0.72724364    -0.60000
N3223       N  0.53035534  0.07706491  0.70714805    -0.05610
N3224       N  0.55338592  0.07868985  0.69504089    -0.61250
N3225       N  0.53037833  0.05775965  0.72589704    -0.07520
N3226       N  0.55369541  0.04601468  0.72694837    -0.60270
N3227       N  0.96847546  0.07651786  0.70701052    -0.05250
N3228       N  0.94561361  0.07796838  0.69483861    -0.61340
Mn3229     Mn  0.49961061  0.10840821  0.70567079     1.18440
C3230       C  0.93074073  0.05836247  0.70725156     0.96960
C3231       C  0.56768986  0.05886704  0.70717704     0.97620
N3232       N  0.96987742  0.16454499  0.78793288    -0.07540
N3233       N  0.95851552  0.18612622  0.79966799    -0.63850
N3234       N  0.52847403  0.14370518  0.80448333    -0.06340
N3235       N  0.54295285  0.14862774  0.82555880    -0.64520
N3236       N  0.52849161  0.16534092  0.78809706    -0.07040
N3237       N  0.54242741  0.18603708  0.79898652    -0.64110
N3238       N  0.96891077  0.14297917  0.80443425    -0.05940
N3239       N  0.95586471  0.14907038  0.82637308    -0.64800
Mn3240     Mn  0.99928130  0.16512634  0.75432311     1.10660
C3241       C  0.94925432  0.17588097  0.82346412     0.98180
C3242       C  0.55186850  0.17478029  0.82219782     0.98250
N3243       N  0.52964361  0.05912412  0.78750479    -0.07050
N3244       N  0.55284549  0.04726242  0.78661108    -0.62430
N3245       N  0.96809439  0.07893287  0.80564062    -0.06370
N3246       N  0.94533769  0.08086000  0.81810569    -0.59160
N3247       N  0.96750288  0.05886701  0.78781853    -0.07680
N3248       N  0.94407195  0.04684706  0.78775723    -0.61990
N3249       N  0.52987248  0.07967409  0.80481831    -0.06670
N3250       N  0.55321884  0.08228594  0.81584171    -0.59180
Mn3251     Mn  0.49874337  0.05687517  0.75682293     1.20190
Mn3252     Mn  0.49884414  0.11088479  0.80515131     1.10090
Cl3253     Cl  0.49913343  0.11085271  0.75545202    -0.87150
C3254       C  0.56739698  0.06182883  0.80447310     0.95180
C3255       C  0.93056503  0.06051036  0.80707788     0.94980
N3256       N  0.53212696  0.44542749  0.72367289    -0.07300
N3257       N  0.55466313  0.45913749  0.72192436    -0.59420
N3258       N  0.96978986  0.42768775  0.70642569    -0.06980
N3259       N  0.94655686  0.42634086  0.69503358    -0.61550
N3260       N  0.97014688  0.44668434  0.72527583    -0.06580
N3261       N  0.94695255  0.45860226  0.72700196    -0.59400
N3262       N  0.53100551  0.42624865  0.70502443    -0.06260
N3263       N  0.55251546  0.42641687  0.69029638    -0.61900
C3264       C  0.56718020  0.44720596  0.70075954     0.94870
C3265       C  0.93237324  0.44581192  0.70784764     0.94650
N3266       N  0.96793739  0.34149120  0.71834822    -0.07490
N3267       N  0.95292293  0.32305535  0.70537820    -0.60000
N3268       N  0.52790418  0.36176621  0.70266062    -0.05610
N3269       N  0.54138777  0.35679327  0.68071190    -0.61250
N3270       N  0.52672481  0.33942199  0.71816078    -0.07520
N3271       N  0.53872121  0.31851322  0.70602728    -0.60270
N3272       N  0.96844868  0.36490343  0.70454675    -0.05250
N3273       N  0.95304651  0.36358007  0.68384396    -0.61340
Mn3274     Mn  0.99952047  0.39536122  0.70445315     1.18440
C3275       C  0.94328156  0.33767198  0.68393200     0.96960
C3276       C  0.54831890  0.33001507  0.68296002     0.97620
N3277       N  0.97061110  0.44311287  0.78664202    -0.07540
N3278       N  0.94760335  0.45528215  0.78560408    -0.63850
N3279       N  0.53138220  0.42125800  0.80401633    -0.06340
N3280       N  0.55407540  0.41839407  0.81627289    -0.64520
N3281       N  0.53262997  0.44153798  0.78626532    -0.07040
N3282       N  0.55639414  0.45265120  0.78598560    -0.64110
N3283       N  0.96968535  0.42224521  0.80375427    -0.05940
N3284       N  0.94611183  0.41994786  0.81461013    -0.64800
Mn3285     Mn  0.00161967  0.44568708  0.75568969     1.10660
C3286       C  0.93246525  0.44089323  0.80332079     0.98180
C3287       C  0.56952164  0.43824823  0.80507228     0.98250
N3288       N  0.52691328  0.33589031  0.78537280    -0.07050
N3289       N  0.53711599  0.31372328  0.79736639    -0.62430
N3290       N  0.96940650  0.35763635  0.80295191    -0.06370
N3291       N  0.95676892  0.35082966  0.82505414    -0.59160
N3292       N  0.96901672  0.33678734  0.78572711    -0.07680
N3293       N  0.95692118  0.31490637  0.79686239    -0.61990
N3294       N  0.52874371  0.35737998  0.80176019    -0.06670
N3295       N  0.54135023  0.35071833  0.82367755    -0.59180
Mn3296     Mn  0.99759895  0.33729977  0.75169428     1.20190
Mn3297     Mn  0.99974456  0.39011157  0.80344156     1.10090
Cl3298     Cl  0.99975892  0.39189093  0.75384715    -0.87150
C3299       C  0.54670829  0.32363007  0.82103349     0.95180
C3300       C  0.94886201  0.32441686  0.82120616     0.94980
C3301       C  0.88880404  0.42289771  0.81897058    -0.27500
C3302       C  0.90345409  0.44360361  0.80547545    -0.15580
C3303       C  0.89006676  0.46583701  0.79322077     0.35050
C3304       C  0.86252267  0.46623344  0.79374926    -0.26950
C3305       C  0.84781433  0.44560765  0.80728890    -0.16190
C3306       C  0.86127760  0.42365964  0.82011113     0.36140
N3307       N  0.84705988  0.40214093  0.83426858    -0.90440
H3308       H  0.89883799  0.40577196  0.82850390     0.17250
H3309       H  0.85250943  0.48348940  0.78449395     0.17240
N3310       N  0.90447118  0.48815574  0.78054467    -0.89470
H3311       H  0.85985209  0.38797272  0.84307968     0.34620
H3312       H  0.83619200  0.39100440  0.82009948     0.39720
H3313       H  0.91679583  0.49695366  0.79491099     0.39340
H3314       H  0.89195001  0.50403714  0.77469184     0.34230
C3315       C  0.61037929  0.43751909  0.83287805    -0.27500
C3316       C  0.59847394  0.43838436  0.80764068    -0.15580
C3317       C  0.61440044  0.43886770  0.78462355     0.35050
C3318       C  0.64174277  0.43968574  0.78671484    -0.26950
C3319       C  0.65382057  0.43972913  0.81182872    -0.16190
C3320       C  0.63790108  0.43859584  0.83524349     0.36140
N3321       N  0.64956912  0.44062753  0.86129708    -0.90440
H3322       H  0.59820862  0.43695227  0.85075560     0.17250
H3323       H  0.65355013  0.44098552  0.76860077     0.17240
N3324       N  0.60264327  0.44008885  0.75889246    -0.89470
H3325       H  0.63511005  0.44322750  0.87593891     0.34620
H3326       H  0.65856989  0.42161322  0.86520428     0.39720
H3327       H  0.61155862  0.42554714  0.74633130     0.39340
H3328       H  0.60678694  0.46011306  0.75216610     0.34230
C3329       C  0.88992585  0.03657911  0.82318480    -0.27500
C3330       C  0.90170032  0.05930329  0.80986216    -0.15580
C3331       C  0.88557108  0.08104203  0.80023940     0.35050
C3332       C  0.85829232  0.07809775  0.80200169    -0.26950
C3333       C  0.84664558  0.05385819  0.81229018    -0.16190
C3334       C  0.86249151  0.03385066  0.82486034     0.36140
N3335       N  0.85072804  0.01225757  0.84110005    -0.90440
H3336       H  0.90216158  0.02117361  0.83269303     0.17250
H3337       H  0.84599080  0.09476530  0.79492250     0.17240
N3338       N  0.89589129  0.10607191  0.78805139    -0.89470
H3339       H  0.86500168  0.99890105  0.84856340     0.34620
H3340       H  0.83841887  0.00033105  0.82903585     0.39720
H3341       H  0.91610520  0.10563413  0.78555115     0.39340
H3342       H  0.89166571  0.12265601  0.80085606     0.34230
C3343       C  0.64065002  0.07826906  0.80990776    -0.27500
C3344       C  0.65143415  0.05174318  0.80643944    -0.15580
C3345       C  0.63415508  0.02875426  0.80377068     0.35050
C3346       C  0.60709813  0.03262881  0.80339298    -0.26950
C3347       C  0.59627392  0.05904258  0.80675972    -0.16190
C3348       C  0.61345431  0.08217934  0.81016811     0.36140
N3349       N  0.60403643  0.10995456  0.81327371    -0.90440
H3350       H  0.65346796  0.09615222  0.81252106     0.17250
H3351       H  0.59437406  0.01461931  0.80098887     0.17240
N3352       N  0.64340605  0.00092705  0.80307238    -0.89470
H3353       H  0.59275099  0.11067690  0.83078455     0.34620
H3354       H  0.59233776  0.11488697  0.79680474     0.39720
H3355       H  0.65456930  0.99761457  0.82030548     0.39340
H3356       H  0.65514762  0.99869588  0.78607032     0.34230
C3357       C  0.86029123  0.43026088  0.69261782    -0.27500
C3358       C  0.84764627  0.45210986  0.70599566    -0.15580
C3359       C  0.86332318  0.47235242  0.71910630     0.35050
C3360       C  0.89078181  0.47031837  0.71850460    -0.26950
C3361       C  0.90332966  0.44823510  0.70563586    -0.16190
C3362       C  0.88772121  0.42808077  0.69235695     0.36140
N3363       N  0.89946069  0.40516405  0.67866615    -0.90440
H3364       H  0.84883286  0.41466696  0.68212235     0.17250
H3365       H  0.90253379  0.48632683  0.72796400     0.17240
N3366       N  0.85144642  0.49545888  0.73232710    -0.89470
H3367       H  0.89362323  0.40578815  0.65856840     0.34620
H3368       H  0.89221799  0.38668600  0.68718375     0.39720
H3369       H  0.84202237  0.50648238  0.71737862     0.39340
H3370       H  0.86557261  0.50920465  0.73971831     0.34230
C3371       C  0.63825843  0.43339906  0.68215896    -0.27500
C3372       C  0.65095909  0.45473275  0.69647854    -0.15580
C3373       C  0.63552830  0.47556649  0.70858884     0.35050
C3374       C  0.60819728  0.47493712  0.70547694    -0.26950
C3375       C  0.59547087  0.45177651  0.69438152    -0.16190
C3376       C  0.61075213  0.43136384  0.68133045     0.36140
N3377       N  0.59849562  0.40815608  0.66805656    -0.90440
H3378       H  0.64982418  0.41763372  0.67229453     0.17250
H3379       H  0.59659966  0.49091402  0.71500205     0.17240
N3380       N  0.64729120  0.49643244  0.72535309    -0.89470
H3381       H  0.61251326  0.39458482  0.66039125     0.34620
H3382       H  0.58842310  0.41602570  0.65150361     0.39720
H3383       H  0.65529309  0.48613370  0.74182569     0.39340
H3384       H  0.63311711  0.50966562  0.73326329     0.34230
C3385       C  0.88678000  0.07251311  0.72287486    -0.27500
C3386       C  0.90187958  0.05712101  0.70465393    -0.15580
C3387       C  0.88915259  0.04285641  0.68348324     0.35050
C3388       C  0.86169357  0.04335658  0.68193464    -0.26950
C3389       C  0.84664030  0.05784265  0.70090180    -0.16190
C3390       C  0.85930741  0.07323902  0.72095501     0.36140
N3391       N  0.84419417  0.09058136  0.73837693    -0.90440
H3392       H  0.89656406  0.08438107  0.73835925     0.17250
H3393       H  0.85196610  0.03172694  0.66619026     0.17240
N3394       N  0.90324163  0.02727270  0.66360984    -0.89470
H3395       H  0.85647740  0.10267062  0.75040111     0.34620
H3396       H  0.83301883  0.07755111  0.75089234     0.39720
H3397       H  0.92334280  0.02777990  0.66703898     0.39340
H3398       H  0.90023009  0.03686870  0.64500506     0.34230
C3399       C  0.64015977  0.07166091  0.71977919    -0.27500
C3400       C  0.65174107  0.05565869  0.69957373    -0.15580
C3401       C  0.63560580  0.04118314  0.68120982     0.35050
C3402       C  0.60815597  0.04218967  0.68411021    -0.26950
C3403       C  0.59659801  0.05771478  0.70471108    -0.16190
C3404       C  0.61273550  0.07332695  0.72213062     0.36140
N3405       N  0.60115520  0.09163765  0.74146904    -0.90440
H3406       H  0.65254846  0.08310740  0.73356066     0.17250
H3407       H  0.59574545  0.03067819  0.67040374     0.17240
N3408       N  0.64719404  0.02451963  0.66046884    -0.89470
H3409       H  0.61563169  0.10187022  0.75255024     0.34620
H3410       H  0.59038425  0.07940441  0.75496995     0.39720
H3411       H  0.65700344  0.03797754  0.64720298     0.39340
H3412       H  0.63271861  0.01436430  0.64931403     0.34230
C3413       C  0.83358362  0.35962989  0.58570238    -0.27500
C3414       C  0.82067964  0.34903346  0.56311488    -0.15580
C3415       C  0.80339796  0.36664674  0.54884781     0.35050
C3416       C  0.79929564  0.39403272  0.55802922    -0.26950
C3417       C  0.81272958  0.40456506  0.58045024    -0.16190
C3418       C  0.83036904  0.38704667  0.59413885     0.36140
N3419       N  0.84606312  0.39660264  0.61624922    -0.90440
H3420       H  0.84792928  0.34694791  0.59589681     0.17250
H3421       H  0.78503525  0.40688924  0.54797385     0.17240
N3422       N  0.79007115  0.35781568  0.52492982    -0.89470
H3423       H  0.83908249  0.38687428  0.63372945     0.34620
H3424       H  0.84487172  0.41809473  0.61895353     0.39720
H3425       H  0.79401467  0.33712414  0.52030903     0.39340
H3426       H  0.79719601  0.36992194  0.50894152     0.34230
C3427       C  0.82551836  0.11909801  0.59486153    -0.27500
C3428       C  0.81062981  0.10123395  0.57856509    -0.15580
C3429       C  0.79913656  0.11200952  0.55503706     0.35050
C3430       C  0.80338042  0.14034240  0.54821611    -0.26950
C3431       C  0.81817451  0.15804525  0.56492165    -0.16190
C3432       C  0.82869019  0.14726920  0.58889863     0.36140
N3433       N  0.84358047  0.16420291  0.60723836    -0.90440
H3434       H  0.83382169  0.11130657  0.61341098     0.17250
H3435       H  0.79629412  0.14826116  0.52920948     0.17240
N3436       N  0.78290772  0.09451722  0.53858202    -0.89470
H3437       H  0.83403705  0.16346883  0.62586006     0.34620
H3438       H  0.84366382  0.18513133  0.60147735     0.39720
H3439       H  0.79479500  0.07909381  0.53041543     0.39340
H3440       H  0.77551411  0.10585958  0.52238209     0.34230
C3441       C  0.84597779  0.37441466  0.93466736    -0.27500
C3442       C  0.82801172  0.35307766  0.94181589    -0.15580
C3443       C  0.80165386  0.35999427  0.94604762     0.35050
C3444       C  0.79400063  0.38799109  0.94298947    -0.26950
C3445       C  0.81215507  0.40895489  0.93557420    -0.16190
C3446       C  0.83838477  0.40205672  0.93158110     0.36140
N3447       N  0.85708029  0.42304549  0.92331258    -0.90440
H3448       H  0.86635243  0.36960155  0.93134462     0.17250
H3449       H  0.77348360  0.39318859  0.94446908     0.17240
N3450       N  0.78280258  0.33878977  0.95298509    -0.89470
H3451       H  0.87582967  0.41468612  0.92198878     0.34620
H3452       H  0.85225572  0.42951245  0.90389313     0.39720
H3453       H  0.78162350  0.32505459  0.93677527     0.39340
H3454       H  0.76430312  0.34750781  0.95496164     0.34230
C3455       C  0.79643412  0.11456844  0.94592484    -0.27500
C3456       C  0.81228123  0.09852020  0.92890767    -0.15580
C3457       C  0.83461248  0.11082389  0.91687523     0.35050
C3458       C  0.84000701  0.13892669  0.92122938    -0.26950
C3459       C  0.82444092  0.15514084  0.93825487    -0.16190
C3460       C  0.80247045  0.14281904  0.95097548     0.36140
N3461       N  0.78694264  0.15864170  0.96945126    -0.90440
H3462       H  0.77871064  0.10540824  0.95426070     0.17250
H3463       H  0.85749306  0.14792452  0.91218082     0.17240
N3464       N  0.85195801  0.09552955  0.89962033    -0.89470
H3465       H  0.77191238  0.14625444  0.97756210     0.34620
H3466       H  0.77795986  0.17445603  0.95848210     0.39720
H3467       H  0.84678388  0.07446340  0.89880684     0.39340
H3468       H  0.87053157  0.09620579  0.90828054     0.34230
C3469       C  0.92038972  0.32093580  0.86021044    -0.27500
C3470       C  0.93943292  0.30798321  0.84459878    -0.15580
C3471       C  0.95492648  0.28718507  0.85652804     0.35050
C3472       C  0.95324451  0.28255721  0.88464858    -0.26950
C3473       C  0.93715626  0.29916228  0.90101902    -0.16190
C3474       C  0.91928826  0.31733038  0.88813672     0.36140
N3475       N  0.90090907  0.33345415  0.90332056    -0.90440
H3476       H  0.90833706  0.33673417  0.85097716     0.17250
H3477       H  0.96578817  0.26730535  0.89393530     0.17240
N3478       N  0.97370681  0.27253369  0.84053277    -0.89470
H3479       H  0.88745039  0.34306127  0.89064290     0.34620
H3480       H  0.91140290  0.34958548  0.91249392     0.39720
H3481       H  0.96333326  0.26065057  0.82653921     0.39340
H3482       H  0.98401293  0.25847438  0.85244752     0.34230
C3483       C  0.93353452  0.29154206  0.62279474    -0.27500
C3484       C  0.93579219  0.31215993  0.60265385    -0.15580
C3485       C  0.93396632  0.34042605  0.61017004     0.35050
C3486       C  0.93092453  0.34708605  0.63718448    -0.26950
C3487       C  0.93314985  0.32694621  0.65772004    -0.16190
C3488       C  0.93179948  0.29865726  0.65032060     0.36140
N3489       N  0.92722321  0.27707681  0.66979501    -0.90440
H3490       H  0.93197602  0.26995270  0.61700656     0.17250
H3491       H  0.92983328  0.36901129  0.64209423     0.17240
N3492       N  0.93624672  0.36317750  0.59126656    -0.89470
H3493       H  0.91012743  0.26648613  0.66427565     0.34620
H3494       H  0.92320520  0.28549845  0.68864194     0.39720
H3495       H  0.94294730  0.35657903  0.57256891     0.39340
H3496       H  0.95109722  0.37649108  0.59804742     0.34230
C3497       C  0.96701213  0.20085939  0.89203766    -0.27500
C3498       C  0.94237528  0.20287147  0.90402571    -0.15580
C3499       C  0.91985624  0.20219562  0.88738527     0.35050
C3500       C  0.92245484  0.19707821  0.85973123    -0.26950
C3501       C  0.94703239  0.19241228  0.84830133    -0.16190
C3502       C  0.96947385  0.19485373  0.86454534     0.36140
N3503       N  0.99448088  0.18789044  0.85352403    -0.90440
H3504       H  0.98429811  0.20169737  0.90452827     0.17250
H3505       H  0.90506814  0.19454587  0.84760050     0.17240
N3506       N  0.89409211  0.20620702  0.89794915    -0.89470
H3507       H  0.00871251  0.18844955  0.86844603     0.34620
H3508       H  0.99918138  0.20299076  0.83910529     0.39720
H3509       H  0.89387769  0.22490581  0.90864548     0.39340
H3510       H  0.88945784  0.18976660  0.91093042     0.34230
C3511       C  0.92131986  0.16773999  0.64467355    -0.27500
C3512       C  0.93641901  0.18424328  0.66193947    -0.15580
C3513       C  0.94801495  0.20880424  0.65180606     0.35050
C3514       C  0.94753189  0.21419713  0.62379745    -0.26950
C3515       C  0.93429894  0.19620454  0.60599555    -0.16190
C3516       C  0.92024436  0.17314804  0.61697687     0.36140
N3517       N  0.90612741  0.15416407  0.59994087    -0.90440
H3518       H  0.91223965  0.14887031  0.65251157     0.17250
H3519       H  0.95828897  0.23191023  0.61579837     0.17240
N3520       N  0.96170505  0.22707765  0.66972595    -0.89470
H3521       H  0.89612264  0.13908529  0.61132137     0.34620
H3522       H  0.91988535  0.14346297  0.58843097     0.39720
H3523       H  0.94874272  0.23285207  0.68494449     0.39340
H3524       H  0.96718313  0.24533901  0.65963220     0.34230
C3525       C  0.66031275  0.36877164  0.93245049    -0.27500
C3526       C  0.67649533  0.35015581  0.94631096    -0.15580
C3527       C  0.69931566  0.36063224  0.95876305     0.35050
C3528       C  0.70690675  0.38865882  0.95399516    -0.26950
C3529       C  0.69068799  0.40669828  0.93940240    -0.16190
C3530       C  0.66644529  0.39700171  0.93038387     0.36140
N3531       N  0.64856883  0.41591101  0.91801304    -0.90440
H3532       H  0.64204460  0.36142859  0.92394051     0.17250
H3533       H  0.72576395  0.39615784  0.96083443     0.17240
N3534       N  0.71423453  0.34327136  0.97641400    -0.89470
H3535       H  0.63142440  0.40551918  0.91230822     0.34620
H3536       H  0.64317272  0.43049048  0.93251620     0.39720
H3537       H  0.70219328  0.33790395  0.99270205     0.39340
H3538       H  0.72975613  0.35468015  0.98459756     0.34230
C3539       C  0.67011926  0.11112320  0.91594881    -0.27500
C3540       C  0.68881831  0.09723289  0.93142087    -0.15580
C3541       C  0.70196950  0.11217665  0.95205870     0.35050
C3542       C  0.69567493  0.14029593  0.95644491    -0.26950
C3543       C  0.67731343  0.15398004  0.94035039    -0.16190
C3544       C  0.66506445  0.13930507  0.91933511     0.36140
N3545       N  0.64712590  0.15236653  0.90113923    -0.90440
H3546       H  0.66058617  0.10035783  0.89948616     0.17250
H3547       H  0.70446632  0.15121305  0.97319142     0.17240
N3548       N  0.72203778  0.10018516  0.96843673    -0.89470
H3549       H  0.65469606  0.15028181  0.88170208     0.34620
H3550       H  0.64600401  0.17377308  0.90447355     0.39720
H3551       H  0.72500433  0.07931899  0.96397872     0.39340
H3552       H  0.71559519  0.10074886  0.48840438     0.34230
C3553       C  0.67615596  0.37507064  0.54148046    -0.27500
C3554       C  0.68325808  0.34969884  0.55373648    -0.15580
C3555       C  0.70243934  0.34981867  0.57374625     0.35050
C3556       C  0.71190756  0.37552217  0.58320961    -0.26950
C3557       C  0.70248435  0.40102972  0.57309848    -0.16190
C3558       C  0.68576412  0.40078972  0.55083676     0.36140
N3559       N  0.67724048  0.42647025  0.53904219    -0.90440
H3560       H  0.66207574  0.37489521  0.52528269     0.17250
H3561       H  0.72571572  0.37562520  0.59964723     0.17240
N3562       N  0.71109594  0.32412167  0.58542644    -0.89470
H3563       H  0.66417328  0.42254448  0.02338456     0.34620
H3564       H  0.69361253  0.43613072  0.53030365     0.39720
H3565       H  0.69521427  0.31508904  0.59562541     0.39340
H3566       H  0.72549918  0.32793691  0.59982092     0.34230
C3567       C  0.65962713  0.13160529  0.57591615    -0.27500
C3568       C  0.67643874  0.15063166  0.56266397    -0.15580
C3569       C  0.70126391  0.14150985  0.55410360     0.35050
C3570       C  0.70879805  0.11383689  0.55986244    -0.26950
C3571       C  0.69166246  0.09512888  0.57315613    -0.16190
C3572       C  0.66679048  0.10414909  0.58100139     0.36140
N3573       N  0.64898612  0.08542262  0.59469020    -0.90440
H3574       H  0.64032539  0.13809763  0.58210997     0.17250
H3575       H  0.72844329  0.10719564  0.55505636     0.17240
N3576       N  0.71862419  0.16007280  0.53979257    -0.89470
H3577       H  0.63096592  0.09493427  0.59798306     0.34620
H3578       H  0.65658369  0.08118838  0.61370651     0.39720
H3579       H  0.71000647  0.16460280  0.52131368     0.39340
H3580       H  0.73623729  0.15015419  0.53542748     0.34230
C3581       C  0.57588595  0.29554697  0.88458830    -0.27500
C3582       C  0.55424021  0.29790128  0.90197406    -0.15580
C3583       C  0.52961789  0.30394617  0.89126596     0.35050
C3584       C  0.52710754  0.30821304  0.86347017    -0.26950
C3585       C  0.54889526  0.30738979  0.84613829    -0.16190
C3586       C  0.57345018  0.30046672  0.85671194     0.36140
N3587       N  0.59599629  0.30026549  0.83941344    -0.90440
H3588       H  0.59486992  0.29087339  0.89292760     0.17250
H3589       H  0.50849610  0.31496008  0.85558873     0.17240
N3590       N  0.50799203  0.30893173  0.90903872    -0.89470
H3591       H  0.61269816  0.29522114  0.85035044     0.34620
H3592       H  0.59320235  0.28432878  0.82542980     0.39720
H3593       H  0.50203015  0.28976015  0.91708195     0.39340
H3594       H  0.49224065  0.31712056  0.89847643     0.34230
C3595       C  0.54005717  0.29213155  0.61763715    -0.27500
C3596       C  0.56113967  0.30343465  0.60286673    -0.15580
C3597       C  0.58076267  0.31868119  0.61669681     0.35050
C3598       C  0.57754178  0.32428329  0.64420742    -0.26950
C3599       C  0.55550468  0.31476714  0.65841786    -0.16190
C3600       C  0.53675472  0.29807033  0.64515011     0.36140
N3601       N  0.51341541  0.28907074  0.65903028    -0.90440
H3602       H  0.52521667  0.28002705  0.60734787     0.17250
H3603       H  0.59154815  0.33766216  0.65431232     0.17240
N3604       N  0.60352848  0.32918810  0.60277087    -0.89470
H3605       H  0.50137826  0.27770595  0.64609547     0.34620
H3606       H  0.50281496  0.30679637  0.66414154     0.39720
H3607       H  0.61458290  0.31203486  0.59690484     0.39340
H3608       H  0.61537552  0.34087965  0.61565953     0.34230
C3609       C  0.57769381  0.17134420  0.86285275    -0.27500
C3610       C  0.56368016  0.18899585  0.84583022    -0.15400
C3611       C  0.55344486  0.21374395  0.85666393     0.35050
C3612       C  0.55361497  0.21768330  0.88495760    -0.26950
C3613       C  0.56397920  0.19732533  0.90233602    -0.16190
C3614       C  0.57679141  0.17421733  0.89081561     0.36140
N3615       N  0.58726889  0.15249317  0.90745616    -0.90440
H3616       H  0.58625728  0.15273366  0.85451945     0.17250
H3617       H  0.54471450  0.23604811  0.89344663     0.17240
N3618       N  0.54101679  0.23346798  0.83932303    -0.89470
H3619       H  0.59592455  0.13701998  0.89578173     0.34620
H3620       H  0.57155341  0.14284361  0.91741234     0.39720
H3621       H  0.55542903  0.24197711  0.82670254     0.39340
H3622       H  0.53342881  0.24985100  0.85057129     0.34230
C3623       C  0.58072270  0.17981979  0.64726778    -0.27500
C3624       C  0.55906498  0.18911755  0.66181046    -0.15580
C3625       C  0.54078265  0.20623786  0.64885055     0.35050
C3626       C  0.54312359  0.21152986  0.62105048    -0.26950
C3627       C  0.56338801  0.19988501  0.60590832    -0.16190
C3628       C  0.58347649  0.18554268  0.61964353     0.36140
N3629       N  0.60631381  0.17619858  0.60553875    -0.90440
H3630       H  0.59476965  0.16658811  0.65719363     0.17250
H3631       H  0.52816484  0.22338186  0.61093396     0.17240
N3632       N  0.51874896  0.21644876  0.66348716    -0.89470
H3633       H  0.61877905  0.16557487  0.61852718     0.34620
H3634       H  0.61662427  0.19392445  0.59907264     0.39720
H3635       H  0.50682513  0.19933252  0.66835831     0.39340
H3636       H  0.50789000  0.22926050  0.65093526     0.34230
N3637       N  0.65604057  0.71464262  0.03295905    -0.07300
N3638       N  0.67557118  0.70095221  0.04456569    -0.59420
N3639       N  0.63496268  0.69797224  0.47354005    -0.06980
N3640       N  0.63932465  0.67536953  0.45972025    -0.61550
N3641       N  0.65566578  0.71457751  0.47341566    -0.06580
N3642       N  0.67503166  0.70245638  0.46012802    -0.59400
N3643       N  0.63476536  0.69889911  0.03393905    -0.06260
N3644       N  0.63889533  0.67580478  0.04703671    -0.61900
C3645       C  0.66411155  0.67686802  0.05368624     0.94870
C3646       C  0.66402214  0.67832840  0.45122105     0.94650
N3647       N  0.55701997  0.71715671  0.47131020    -0.07490
N3648       N  0.54859239  0.71934145  0.44614503    -0.60000
N3649       N  0.57569000  0.69916432  0.03579765    -0.05610
N3650       N  0.57972373  0.68861474  0.05987464    -0.61250
N3651       N  0.55738017  0.71802645  0.03662059    -0.07520
N3652       N  0.54877227  0.72069342  0.06167439    -0.60270
N3653       N  0.57547178  0.69845892  0.47249507    -0.05250
N3654       N  0.57964661  0.68752910  0.44868238    -0.61340
Mn3655     Mn  0.60462631  0.69838655  0.00392464     1.18440
C3656       C  0.56278493  0.70040970  0.43225596     0.96960
C3657       C  0.56297694  0.70215548  0.07599959     0.97620
N3658       N  0.65620777  0.78427105  0.47220875    -0.07540
N3659       N  0.67604833  0.79928423  0.46219883    -0.63850
N3660       N  0.63633065  0.80246496  0.03026031    -0.06340
N3661       N  0.64251975  0.82681102  0.04038196    -0.64520
N3662       N  0.65643219  0.78540203  0.03121996    -0.07040
N3663       N  0.67689869  0.79878927  0.04156122    -0.64110
N3664       N  0.63453430  0.79872685  0.46996274    -0.05940
N3665       N  0.63879580  0.82205294  0.45714710    -0.64800
Mn3666     Mn  0.65721700  0.74965377  0.50263338     1.10660
C3667       C  0.66448268  0.82268747  0.45249296     0.98180
C3668       C  0.66762818  0.82451903  0.04740039     0.98250
N3669       N  0.55741844  0.78141046  0.03476583    -0.07050
N3670       N  0.54789673  0.78028001  0.05954906    -0.62430
N3671       N  0.57529625  0.79775708  0.46951108    -0.06370
N3672       N  0.57752811  0.80798590  0.44490306    -0.59160
N3673       N  0.55581585  0.77989666  0.47098147    -0.07680
N3674       N  0.54411837  0.77790015  0.44741383    -0.61990
N3675       N  0.57619889  0.80016720  0.03328134    -0.06670
N3676       N  0.57973241  0.81211011  0.05681703    -0.59180
Mn3677     Mn  0.55531927  0.74899245  0.00357576     1.20190
Mn3678     Mn  0.60504544  0.79996661  0.50076996     1.10090
Cl3679     Cl  0.60616635  0.74929707  0.00301721    -0.87150
C3680       C  0.56201964  0.79960924  0.07314418     0.95180
C3681       C  0.55779412  0.79564080  0.43139295     0.94980
N3682       N  0.94003262  0.72068619  0.03803537    -0.07300
N3683       N  0.94870375  0.72165404  0.06317318    -0.59420
N3684       N  0.92463072  0.70157380  0.47272095    -0.06980
N3685       N  0.92179477  0.69144344  0.44830066    -0.61550
N3686       N  0.94404077  0.71958768  0.47342014    -0.06580
N3687       N  0.95490847  0.72177623  0.44925567    -0.59400
N3688       N  0.92139261  0.70188608  0.03613006    -0.06260
N3689       N  0.91719298  0.68965119  0.05947743    -0.61900
C3690       C  0.93437713  0.70177413  0.07632305     0.94870
C3691       C  0.94069182  0.70419987  0.43377772     0.94650
N3692       N  0.84455373  0.71745230  0.47057590    -0.07490
N3693       N  0.82565635  0.70453328  0.45702015    -0.60000
N3694       N  0.86197682  0.70144540  0.03140058    -0.05610
N3695       N  0.85671931  0.67903477  0.04546686    -0.61250
N3696       N  0.84155181  0.71798300  0.03020320    -0.07520
N3697       N  0.82146526  0.70593724  0.04293495    -0.60270
N3698       N  0.86530529  0.70137063  0.47124516    -0.05250
N3699       N  0.86150913  0.67859329  0.45750325    -0.61340
Mn3700     Mn  0.89385346  0.70129194  0.00289961     1.18440
C3701       C  0.83705308  0.68055706  0.44854695     0.96960
C3702       C  0.83175934  0.68194028  0.05272077     0.97620
N3703       N  0.94384870  0.78246292  0.47110245    -0.07540
N3704       N  0.95236883  0.77901251  0.44598694    -0.63850
N3705       N  0.92230769  0.80301597  0.03401372    -0.06340
N3706       N  0.91828114  0.81611014  0.05676283    -0.64520
N3707       N  0.94045613  0.78415447  0.03663559    -0.07040
N3708       N  0.94903280  0.78394643  0.06180014    -0.64110
N3709       N  0.92592730  0.80175024  0.47132968    -0.05940
N3710       N  0.92233825  0.81183609  0.44707089    -0.64800
Mn3711     Mn  0.94381590  0.75179298  0.00504651     1.10660
C3712       C  0.93865755  0.79764522  0.43114596     0.98180
C3713       C  0.93521824  0.80445642  0.07388907     0.98250
N3714       N  0.84240687  0.78806666  0.02933855    -0.07050
N3715       N  0.82278161  0.80043602  0.04211059    -0.62430
N3716       N  0.86728419  0.80217277  0.46909398    -0.06370
N3717       N  0.86445170  0.82527837  0.45568306    -0.59160
N3718       N  0.84538647  0.78750007  0.46970500    -0.07680
N3719       N  0.82671035  0.80215176  0.45778806    -0.61990
N3720       N  0.86311834  0.80466235  0.02948969    -0.06670
N3721       N  0.85843864  0.82761637  0.04267486    -0.59180
Mn3722     Mn  0.84211817  0.75272449  0.99997016     1.20190
Mn3723     Mn  0.89521381  0.80299032  0.00110782     1.10090
Cl3724     Cl  0.89313693  0.75213668  0.00245022    -0.87150
C3725       C  0.83352875  0.82497194  0.05055226     0.95180
C3726       C  0.83932816  0.82562001  0.44875738     0.94980
N3727       N  0.72358568  0.53551576  0.09865045    -0.07300
N3728       N  0.71179681  0.54716241  0.07772889    -0.59420
N3729       N  0.78095596  0.55369641  0.12180455    -0.06980
N3730       N  0.79367425  0.57695497  0.11732437    -0.61550
N3731       N  0.78143645  0.53739928  0.10054226    -0.06580
N3732       N  0.79361900  0.55077979  0.08049552    -0.59400
N3733       N  0.72233293  0.55250186  0.11940593    -0.06260
N3734       N  0.70921641  0.57492012  0.11350463    -0.61900
C3735       C  0.70253971  0.57145271  0.08782664     0.94870
C3736       C  0.80159643  0.57526138  0.09179970     0.94650
N3737       N  0.78023506  0.53680811  0.20250768    -0.07490
N3738       N  0.80347757  0.53669108  0.21404271    -0.60000
N3739       N  0.71835582  0.55316872  0.18100360    -0.05610
N3740       N  0.69520769  0.56479301  0.17818570    -0.61250
N3741       N  0.71804214  0.53537920  0.20106428    -0.07520
N3742       N  0.69455923  0.53469310  0.21239665    -0.60270
N3743       N  0.78030832  0.55473534  0.18256404    -0.05250
N3744       N  0.80350681  0.56682127  0.17993416    -0.61340
Mn3745     Mn  0.75036184  0.55366515  0.15161175     1.18440
C3746       C  0.81771111  0.55580541  0.19996695     0.96960
C3747       C  0.68061839  0.55346674  0.19817969     0.97620
N3748       N  0.78236978  0.96687976  0.10221076    -0.07540
N3749       N  0.79486133  0.95386897  0.08245211    -0.63850
N3750       N  0.72366249  0.94907410  0.12111019    -0.06340
N3751       N  0.71329708  0.92485171  0.11497816    -0.64520
N3752       N  0.72462640  0.96560327  0.09982322    -0.07040
N3753       N  0.71534707  0.95194446  0.07865047    -0.64110
N3754       N  0.78207770  0.95076229  0.12379023    -0.05940
N3755       N  0.79500629  0.92778645  0.11955562    -0.64800
Mn3756     Mn  0.75306817  0.50138124  0.09934943     1.10660
C3757       C  0.80317357  0.92980754  0.09404082     0.98180
C3758       C  0.70816461  0.92659541  0.08866583     0.98250
N3759       N  0.71853214  0.97185002  0.20189720    -0.07050
N3760       N  0.69444316  0.97440293  0.21117897    -0.62430
N3761       N  0.78119635  0.95330139  0.18550720    -0.06370
N3762       N  0.80444933  0.94157865  0.18442885    -0.59160
N3763       N  0.78071907  0.97253258  0.20415482    -0.07680
N3764       N  0.80375527  0.97412482  0.21608247    -0.61990
N3765       N  0.71910732  0.95275892  0.18307748    -0.06670
N3766       N  0.69547451  0.94204993  0.17940123    -0.59180
Mn3767     Mn  0.74944144  0.00406247  0.20392187     1.20190
Mn3768     Mn  0.75142486  0.95121392  0.15396935     1.10090
Cl3769     Cl  0.75107481  0.00252793  0.15191548    -0.87150
C3770       C  0.68016279  0.95561878  0.19717727     0.95180
C3771       C  0.81849794  0.95460743  0.20368283     0.94980
N3772       N  0.71770266  0.52954492  0.30786185    -0.07300
N3773       N  0.69439818  0.52798743  0.29645369    -0.59420
N3774       N  0.77918139  0.55140776  0.32601883    -0.06980
N3775       N  0.80205210  0.56399777  0.32890523    -0.61550
N3776       N  0.78057436  0.53151010  0.30803902    -0.06580
N3777       N  0.80482223  0.53005245  0.29866929    -0.59400
N3778       N  0.71775281  0.54918685  0.32611455    -0.06260
N3779       N  0.69479845  0.56149674  0.32730659    -0.61900
C3780       C  0.68031249  0.54823418  0.30861293     0.94870
C3781       C  0.81783790  0.55077150  0.31157171     0.94650
N3782       N  0.77866458  0.53757617  0.40846851    -0.07490
N3783       N  0.79224832  0.55003273  0.42775904    -0.60000
N3784       N  0.71942570  0.55140790  0.38784633    -0.05610
N3785       N  0.70618127  0.57401480  0.39244507    -0.61250
N3786       N  0.72045714  0.53558772  0.40954970    -0.07520
N3787       N  0.70828939  0.54826643  0.42970170    -0.60270
N3788       N  0.77799097  0.55388644  0.38712057    -0.05250
N3789       N  0.79161012  0.57672441  0.39091990    -0.61340
Mn3790     Mn  0.74845698  0.55170873  0.35629923     1.18440
C3791       C  0.80060087  0.57412086  0.41596293     0.96960
C3792       C  0.69929361  0.57213191  0.41833892     0.97620
N3793       N  0.78148883  0.96761477  0.30896834    -0.07540
N3794       N  0.80459499  0.96824802  0.29679799    -0.63850
N3795       N  0.72016803  0.94731453  0.33008808    -0.06340
N3796       N  0.69764727  0.93398120  0.33296062    -0.64520
N3797       N  0.71921960  0.96518873  0.31010645    -0.07040
N3798       N  0.69579924  0.96415413  0.29888805    -0.64110
N3799       N  0.78163683  0.94939351  0.32863205    -0.05940
N3800       N  0.80462148  0.93726013  0.33018180    -0.64800
Mn3801     Mn  0.74969644  0.49849857  0.30711079     1.10660
C3802       C  0.81885053  0.94889216  0.31005705     0.98180
C3803       C  0.68257896  0.94440783  0.31327952     0.98250
N3804       N  0.72243462  0.96633388  0.41223538    -0.07050
N3805       N  0.71025304  0.95499785  0.43330279    -0.62430
N3806       N  0.78100612  0.95126539  0.39007786    -0.06370
N3807       N  0.79466821  0.92913336  0.39552280    -0.59160
N3808       N  0.78036234  0.96840312  0.41074714    -0.07680
N3809       N  0.79304643  0.95706309  0.43122288    -0.61990
N3810       N  0.72257222  0.94847094  0.39211957    -0.06670
N3811       N  0.71005923  0.92549490  0.39869300    -0.59180
Mn3812     Mn  0.75046327  0.50204778  0.41124982     1.20190
Mn3813     Mn  0.75128100  0.94887053  0.35975721     1.10090
Cl3814     Cl  0.74988075  0.50025623  0.35883192    -0.87150
C3815       C  0.70237392  0.92971972  0.42408780     0.95180
C3816       C  0.80224119  0.93288781  0.42086779     0.94980
N3817       N  0.52879607  0.66340307  0.22091079    -0.07300
N3818       N  0.54181419  0.68435125  0.20933689    -0.59420
N3819       N  0.96997159  0.64037187  0.20508952    -0.06980
N3820       N  0.95543516  0.64424376  0.18384511    -0.61550
N3821       N  0.97001018  0.66252985  0.22069096    -0.06580
N3822       N  0.95605814  0.68243987  0.20908079    -0.59400
N3823       N  0.52932156  0.64149048  0.20495777    -0.06260
N3824       N  0.54333784  0.64678606  0.18331824    -0.61900
C3825       C  0.55133674  0.67331457  0.18616309     0.94870
C3826       C  0.94660921  0.67028342  0.18630992     0.94650
N3827       N  0.96773554  0.55748907  0.22601034    -0.07490
N3828       N  0.94416855  0.54582938  0.22724220    -0.60000
N3829       N  0.53035258  0.57705971  0.20715154    -0.05610
N3830       N  0.55338458  0.57868449  0.19504732    -0.61250
N3831       N  0.53037240  0.55775235  0.22589860    -0.07520
N3832       N  0.55368858  0.54600573  0.22695151    -0.60270
N3833       N  0.96847318  0.57651908  0.20701108    -0.05250
N3834       N  0.94561175  0.57797430  0.19483894    -0.61340
Mn3835     Mn  0.49961057  0.60840596  0.20567481     1.18440
C3836       C  0.93073575  0.55837041  0.20725077     0.96960
C3837       C  0.56768594  0.55885944  0.20718330     0.97620
N3838       N  0.96987957  0.66453893  0.28793944    -0.07540
N3839       N  0.95851763  0.68612050  0.29967382    -0.63850
N3840       N  0.52847268  0.64369028  0.30449125    -0.06340
N3841       N  0.54295133  0.64861007  0.32556745    -0.64520
N3842       N  0.52849224  0.66532747  0.28810659    -0.07040
N3843       N  0.54242942  0.68602154  0.29899784    -0.64110
N3844       N  0.96891121  0.64297296  0.30444057    -0.05940
N3845       N  0.95586458  0.64906479  0.32637896    -0.64800
Mn3846     Mn  0.99928446  0.66511985  0.25433089     1.10660
C3847       C  0.94925482  0.67587554  0.32346935     0.98180
C3848       C  0.55186907  0.67476219  0.32220858     0.98250
N3849       N  0.52963592  0.55910960  0.28750622    -0.07050
N3850       N  0.55283760  0.54724681  0.28661241    -0.62430
N3851       N  0.96808711  0.57892608  0.30564092    -0.06370
N3852       N  0.94532846  0.58085711  0.31810163    -0.59160
N3853       N  0.96749505  0.55886154  0.28781740    -0.07680
N3854       N  0.94406199  0.54684649  0.28775092    -0.61990
N3855       N  0.52986472  0.57965710  0.30482243    -0.06670
N3856       N  0.55321031  0.58226531  0.31584803    -0.59180
Mn3857     Mn  0.49873618  0.55686786  0.25682253     1.20190
Mn3858     Mn  0.49883970  0.61087248  0.30515599     1.10090
Cl3859     Cl  0.49913118  0.61084546  0.25545641    -0.87150
C3860       C  0.56738894  0.56180947  0.30447771     0.95180
C3861       C  0.93055387  0.56051164  0.30706930     0.94980
N3862       N  0.53212356  0.94542927  0.22366778    -0.07300
N3863       N  0.55465971  0.95913944  0.22191900    -0.59420
N3864       N  0.96978826  0.92769120  0.20642372    -0.06980
N3865       N  0.94655549  0.92634513  0.19503104    -0.61550
N3866       N  0.97014493  0.94668684  0.22527476    -0.06580
N3867       N  0.94695052  0.95860461  0.22700118    -0.59400
N3868       N  0.53100237  0.92625011  0.20501959    -0.06260
N3869       N  0.55251233  0.92641826  0.19029160    -0.61900
C3870       C  0.56717698  0.94720759  0.20075437     0.94870
C3871       C  0.93237150  0.94581552  0.20784578     0.94650
N3872       N  0.96793733  0.84149400  0.21834380    -0.07490
N3873       N  0.95292229  0.82305851  0.20537391    -0.60000
N3874       N  0.52790371  0.86176806  0.20265623    -0.05610
N3875       N  0.54138763  0.85679686  0.18070737    -0.61250
N3876       N  0.52672599  0.83942348  0.21815600    -0.07520
N3877       N  0.53872387  0.81851596  0.20602181    -0.60270
N3878       N  0.96844842  0.86490640  0.20454256    -0.05250
N3879       N  0.95304601  0.86358341  0.18383987    -0.61340
Mn3880     Mn  0.99951940  0.89536482  0.20445016     1.18440
C3881       C  0.94328064  0.83767549  0.18392798     0.96960
C3882       C  0.54832073  0.83001926  0.18295470     0.97620
N3883       N  0.97060985  0.94311396  0.28664110    -0.07540
N3884       N  0.94760291  0.95528543  0.28560668    -0.63850
N3885       N  0.53138002  0.92126082  0.30401084    -0.06340
N3886       N  0.55407374  0.91839987  0.31626690    -0.64520
N3887       N  0.53262510  0.94154143  0.28626036    -0.07040
N3888       N  0.55638745  0.95265847  0.28598069    -0.64110
N3889       N  0.96968467  0.92224579  0.30375279    -0.05940
N3890       N  0.94611254  0.91995018  0.31461201    -0.64800
Mn3891     Mn  0.00161809  0.94568927  0.25568825     1.10660
C3892       C  0.93246618  0.94089721  0.30332529     0.98180
C3893       C  0.56951699  0.93825673  0.30506637     0.98250
N3894       N  0.52691581  0.83589152  0.28536950    -0.07050
N3895       N  0.53711854  0.81372453  0.29736331    -0.62430
N3896       N  0.96940676  0.85763551  0.30294881    -0.06370
N3897       N  0.95677223  0.85082532  0.32505195    -0.59160
N3898       N  0.96901762  0.83678758  0.28572267    -0.07680
N3899       N  0.95692575  0.81490423  0.29685757    -0.61990
N3900       N  0.52874492  0.85738100  0.30175743    -0.06670
N3901       N  0.54135003  0.85071899  0.32367568    -0.59180
Mn3902     Mn  0.99759928  0.83730233  0.25169028     1.20190
Mn3903     Mn  0.99974393  0.89011225  0.30343898     1.10090
Cl3904     Cl  0.99975804  0.89189319  0.25384443    -0.87150
C3905       C  0.54670916  0.82363097  0.32103128     0.95180
C3906       C  0.94886822  0.82441169  0.32120278     0.94980
C3907       C  0.88880527  0.92290396  0.31897805    -0.27500
C3908       C  0.90345597  0.94361207  0.30548688    -0.15580
C3909       C  0.89007010  0.96585284  0.29324340     0.35050
C3910       C  0.86252630  0.96625546  0.29377977    -0.26950
C3911       C  0.84781682  0.94562573  0.30731300    -0.16190
C3912       C  0.86127914  0.92366989  0.32012408     0.36140
N3913       N  0.84706124  0.90214757  0.33427619    -0.90440
H3914       H  0.89883839  0.90577268  0.32850300     0.17250
H3915       H  0.85251444  0.98351782  0.28453396     0.17240
N3916       N  0.90447606  0.98817236  0.28057043    -0.89470
H3917       H  0.85985318  0.88797522  0.34308147     0.34620
H3918       H  0.83619135  0.89101675  0.32010459     0.39720
H3919       H  0.91680495  0.99696302  0.29493704     0.39340
H3920       H  0.89195702  0.00405814  0.27472377     0.34230
C3921       C  0.61037464  0.93752903  0.33286989    -0.27500
C3922       C  0.59846888  0.93839681  0.30763318    -0.15580
C3923       C  0.61439454  0.93888841  0.28461536     0.35050
C3924       C  0.64173688  0.93970613  0.28670546    -0.26950
C3925       C  0.65381441  0.93974606  0.31181895    -0.16190
C3926       C  0.63789590  0.93861031  0.33523395     0.36140
N3927       N  0.64956515  0.94064543  0.36128640    -0.90440
H3928       H  0.59820472  0.93695844  0.35074791     0.17250
H3929       H  0.65354423  0.94101022  0.26859168     0.17240
N3930       N  0.60263630  0.94012170  0.25888565    -0.89470
H3931       H  0.63510673  0.94323919  0.37593018     0.34620
H3932       H  0.65857324  0.92163453  0.36518995     0.39720
H3933       H  0.61155419  0.92558916  0.24631646     0.39340
H3934       H  0.60677471  0.96015150  0.25217056     0.34230
C3935       C  0.88990608  0.53657733  0.32314877    -0.27500
C3936       C  0.90168828  0.55931021  0.30984706    -0.15580
C3937       C  0.88556544  0.58106118  0.30023808     0.35050
C3938       C  0.85828585  0.57812303  0.30199466    -0.26950
C3939       C  0.84663211  0.55387606  0.31225811    -0.16190
C3940       C  0.86247095  0.53385407  0.32481573     0.36140
N3941       N  0.85069891  0.51225066  0.34103603    -0.90440
H3942       H  0.90213620  0.52116189  0.33264948     0.17250
H3943       H  0.84598919  0.59480083  0.29492874     0.17240
N3944       N  0.89589257  0.60609680  0.28806721    -0.89470
H3945       H  0.86496741  0.49888263  0.34849054     0.34620
H3946       H  0.83838750  0.50033992  0.32895983     0.39720
H3947       H  0.91610581  0.60565306  0.28556304     0.39340
H3948       H  0.89167390  0.62267246  0.30088454     0.34230
C3949       C  0.64063931  0.57826117  0.30993119    -0.27500
C3950       C  0.65143008  0.55174249  0.30643787    -0.15580
C3951       C  0.63415714  0.52875061  0.30374904     0.35050
C3952       C  0.60709863  0.53261859  0.30337189    -0.26950
C3953       C  0.59626738  0.55902648  0.30676242    -0.16190
C3954       C  0.61344287  0.58216383  0.31019394     0.36140
N3955       N  0.60401957  0.60993359  0.31332513    -0.90440
H3956       H  0.65345287  0.59614511  0.31256131     0.17250
H3957       H  0.59437903  0.51460808  0.30095149     0.17240
N3958       N  0.64341562  0.50092586  0.30303521    -0.89470
H3959       H  0.59273183  0.61063553  0.33083542     0.34620
H3960       H  0.59232358  0.61488109  0.29685832     0.39720
H3961       H  0.65457519  0.49760540  0.32026933     0.39340
H3962       H  0.65516477  0.49870885  0.28603736     0.34230
C3963       C  0.86029166  0.93027410  0.19259554    -0.27500
C3964       C  0.84764386  0.95211265  0.20598664    -0.15580
C3965       C  0.86331827  0.97234516  0.21911495     0.35050
C3966       C  0.89077717  0.97031178  0.21851633    -0.26950
C3967       C  0.90332778  0.94823935  0.20563259    -0.16190
C3968       C  0.88772167  0.92809488  0.19233715     0.36140
N3969       N  0.89946354  0.90518899  0.17863156    -0.90440
H3970       H  0.84883553  0.91468767  0.18208738     0.17250
H3971       H  0.90252710  0.98631208  0.22799081     0.17240
N3972       N  0.85143924  0.99543971  0.23235353    -0.89470
H3973       H  0.89362885  0.90582833  0.15853338     0.34620
H3974       H  0.89222015  0.88670430  0.18713505     0.39720
H3975       H  0.84201822  0.00647874  0.21741379     0.39340
H3976       H  0.86556438  0.00917827  0.23975854     0.34230
C3977       C  0.63825563  0.93339748  0.18215807    -0.27500
C3978       C  0.65095627  0.95473303  0.19647514    -0.15580
C3979       C  0.63552554  0.97556825  0.20858333     0.35050
C3980       C  0.60819454  0.97493915  0.20546963    -0.26950
C3981       C  0.59546800  0.95177719  0.19437675    -0.16190
C3982       C  0.61074943  0.93136226  0.18132924     0.36140
N3983       N  0.59849318  0.90815227  0.16805863    -0.90440
H3984       H  0.64982142  0.91763081  0.17229567     0.17250
H3985       H  0.59659665  0.99091799  0.21499130     0.17240
N3986       N  0.64728817  0.99643665  0.22534557    -0.89470
H3987       H  0.61251094  0.89457948  0.16039611     0.34620
H3988       H  0.58842138  0.91601908  0.15150396     0.39720
H3989       H  0.65528793  0.98614207  0.24182200     0.39340
H3990       H  0.63311396  0.00967246  0.23325133     0.34230
C3991       C  0.88677608  0.57251807  0.22288063    -0.27500
C3992       C  0.90187457  0.55713382  0.20465233    -0.15580
C3993       C  0.88914661  0.54288248  0.18347394     0.35050
C3994       C  0.86168757  0.54338369  0.18192711    -0.26950
C3995       C  0.84663532  0.55785840  0.20090332    -0.16190
C3996       C  0.85930355  0.57324680  0.22096108     0.36140
N3997       N  0.84419154  0.59058633  0.23838643    -0.90440
H3998       H  0.89656072  0.58437780  0.23837066     0.17250
H3999       H  0.85195926  0.53176211  0.16617779     0.17240
N4000       N  0.90323457  0.52731010  0.16359133    -0.89470
H4001       H  0.85647591  0.60267583  0.25040905     0.34620
H4002       H  0.83301777  0.57755441  0.25090166     0.39720
H4003       H  0.92333592  0.52781505  0.16701954     0.39340
H4004       H  0.90022226  0.53691695  0.14499189     0.34230
C4005       C  0.64015473  0.57164671  0.21979675    -0.27500
C4006       C  0.65173732  0.55564879  0.19958878    -0.15580
C4007       C  0.63560332  0.54117672  0.18122116     0.35050
C4008       C  0.60815340  0.54218373  0.18411909    -0.26950
C4009       C  0.59659410  0.55770578  0.20472121    -0.16190
C4010       C  0.61273033  0.57331331  0.22214591     0.36140
N4011       N  0.60114880  0.59162068  0.24148669    -0.90440
H4012       H  0.65254251  0.58309026  0.23358131     0.17250
H4013       H  0.59574378  0.53067531  0.17040940     0.17240
N4014       N  0.64719280  0.52451615  0.16047866    -0.89470
H4015       H  0.61562426  0.60184826  0.25257352     0.34620
H4016       H  0.59037381  0.57938568  0.25498257     0.39720
H4017       H  0.65700339  0.53797577  0.14721538     0.39340
H4018       H  0.63271805  0.51436279  0.14932128     0.34230
C4019       C  0.83357344  0.85962060  0.08569101    -0.27500
C4020       C  0.82066835  0.84902246  0.06310479    -0.15580
C4021       C  0.80338432  0.86663444  0.04883920     0.35050
C4022       C  0.79928181  0.89402094  0.05801992    -0.26950
C4023       C  0.81271764  0.90455531  0.08043901    -0.16190
C4024       C  0.83035854  0.88703775  0.09412685     0.36140
N4025       N  0.84605430  0.89659507  0.11623542    -0.90440
H4026       H  0.84792053  0.84693979  0.09588463     0.17250
H4027       H  0.78502007  0.90687640  0.04796535     0.17240
N4028       N  0.79005514  0.85780140  0.02492336    -0.89470
H4029       H  0.83907528  0.88686737  0.13371665     0.34620
H4030       H  0.84486287  0.91808725  0.11893896     0.39720
H4031       H  0.79399921  0.83710976  0.02030333     0.39340
H4032       H  0.79717764  0.86990718  0.00893365     0.34230
C4033       C  0.82553121  0.61908647  0.09487272    -0.27500
C4034       C  0.81063747  0.60122640  0.07857757    -0.15580
C4035       C  0.79914221  0.61200499  0.05505195     0.35050
C4036       C  0.80338891  0.64033738  0.04823196    -0.26950
C4037       C  0.81818773  0.65803654  0.06493650    -0.16190
C4038       C  0.82870585  0.64725750  0.08891109     0.36140
N4039       N  0.84359999  0.66418815  0.10725012    -0.90440
H4040       H  0.83383511  0.61129242  0.11342091     0.17250
H4041       H  0.79630048  0.64825863  0.02922708     0.17240
N4042       N  0.78290760  0.59451640  0.03859917    -0.89470
H4043       H  0.83405873  0.66345382  0.12587298     0.34620
H4044       H  0.84368489  0.68511701  0.10149061     0.39720
H4045       H  0.79479087  0.57909102  0.03042987     0.39340
H4046       H  0.77551313  0.60586081  0.02240101     0.34230
C4047       C  0.84596808  0.87434073  0.43455365    -0.27500
C4048       C  0.82800518  0.85302155  0.44175673    -0.15580
C4049       C  0.80165973  0.85995764  0.44604086     0.35050
C4050       C  0.79401623  0.88795771  0.44298354    -0.26950
C4051       C  0.81216923  0.90890497  0.43552175    -0.16190
C4052       C  0.83838568  0.90198580  0.43146975     0.36140
N4053       N  0.85707757  0.92295757  0.42315179    -0.90440
H4054       H  0.86633346  0.86951186  0.43119649     0.17250
H4055       H  0.77350569  0.89317088  0.44450814     0.17240
N4056       N  0.78281246  0.83877081  0.45304006    -0.89470
H4057       H  0.87581866  0.91458371  0.42178910     0.34620
H4058       H  0.85221625  0.92941985  0.40374091     0.39720
H4059       H  0.78158599  0.82502445  0.43684260     0.39340
H4060       H  0.76432345  0.84750333  0.45505912     0.34230
C4061       C  0.79642352  0.61453106  0.44594242    -0.27500
C4062       C  0.81227920  0.59846976  0.42894492    -0.15580
C4063       C  0.83462985  0.61075760  0.41693667     0.35050
C4064       C  0.84003296  0.63885881  0.42128925    -0.26950
C4065       C  0.82445587  0.65508762  0.43829144    -0.16190
C4066       C  0.80246818  0.64278012  0.45099326     0.36140
N4067       N  0.78692891  0.65861580  0.46944815    -0.90440
H4068       H  0.77868611  0.60538333  0.45425923     0.17250
H4069       H  0.85753085  0.64784509  0.41225440     0.17240
N4070       N  0.85198405  0.59544978  0.39970253    -0.89470
H4071       H  0.77188643  0.64623761  0.47754783     0.34620
H4072       H  0.77796263  0.67443036  0.45846471     0.39720
H4073       H  0.84679917  0.57438652  0.39888781     0.39340
H4074       H  0.87054915  0.59611632  0.40838220     0.34230
C4075       C  0.92039348  0.82092207  0.36020335    -0.27500
C4076       C  0.93944124  0.80797502  0.34459407    -0.15580
C4077       C  0.95493876  0.78718129  0.35652511     0.35050
C4078       C  0.95325506  0.78255296  0.38464566    -0.26950
C4079       C  0.93716074  0.79915338  0.40101423    -0.16190
C4080       C  0.91929006  0.81731628  0.38812930     0.36140
N4081       N  0.90090601  0.83343560  0.40331032    -0.90440
H4082       H  0.90833805  0.83671719  0.35096866     0.17250
H4083       H  0.96580125  0.76730444  0.39393381     0.17240
N4084       N  0.97372381  0.77253473  0.34053160    -0.89470
H4085       H  0.88744572  0.84303669  0.39063019     0.34620
H4086       H  0.91139545  0.84957116  0.41248211     0.39720
H4087       H  0.96335416  0.76064881  0.32653722     0.39340
H4088       H  0.98403224  0.75847833  0.35244742     0.34230
C4089       C  0.93352840  0.79154756  0.12279016    -0.27500
C4090       C  0.93578288  0.81216611  0.10264956    -0.15580
C4091       C  0.93395586  0.84043189  0.11016668     0.35050
C4092       C  0.93091805  0.84709094  0.13718196    -0.26950
C4093       C  0.93314627  0.82695048  0.15771665    -0.16190
C4094       C  0.93179556  0.79866179  0.15031637     0.36140
N4095       N  0.92722144  0.77708052  0.16979041    -0.90440
H4096       H  0.93197114  0.76995817  0.11700150     0.17250
H4097       H  0.92982721  0.86901595  0.14209264     0.17240
N4098       N  0.93623196  0.86318406  0.09126358    -0.89470
H4099       H  0.91012540  0.76648962  0.16427226     0.34620
H4100       H  0.92320488  0.78550138  0.18863799     0.39720
H4101       H  0.94292740  0.85658666  0.07256370     0.39340
H4102       H  0.95108412  0.87649728  0.09804131     0.34230
C4103       C  0.96701229  0.70086201  0.39203984    -0.27500
C4104       C  0.94237608  0.70286320  0.40403143    -0.15580
C4105       C  0.91985510  0.70217773  0.38739394     0.35050
C4106       C  0.92245232  0.69706196  0.35973950    -0.26950
C4107       C  0.94703032  0.69240726  0.34830599    -0.16190
C4108       C  0.96947289  0.69485830  0.36454690     0.36140
N4109       N  0.99448121  0.68790622  0.35352197    -0.90440
H4110       H  0.98429964  0.70170751  0.40452804     0.17250
H4111       H  0.90506495  0.69452190  0.34761115     0.17240
N4112       N  0.89409048  0.70617745  0.39796111    -0.89470
H4113       H  0.00871347  0.68846827  0.36844310     0.34620
H4114       H  0.99917577  0.70301096  0.33910548     0.39720
H4115       H  0.89386995  0.72487561  0.40865825     0.39340
H4116       H  0.88946361  0.68973433  0.41094195     0.34230
C4117       C  0.92132666  0.66774444  0.14468056    -0.27500
C4118       C  0.93642371  0.68424817  0.16194778    -0.15580
C4119       C  0.94801816  0.70881063  0.15181599     0.35050
C4120       C  0.94753628  0.71420462  0.12380737    -0.26950
C4121       C  0.93430669  0.69621065  0.10600403    -0.16190
C4122       C  0.92025374  0.67315212  0.11698393     0.36140
N4123       N  0.90614157  0.65416534  0.09994661    -0.90440
H4124       H  0.91224727  0.64887382  0.15251752     0.17250
H4125       H  0.95829164  0.73191949  0.11580955     0.17240
N4126       N  0.96170501  0.72708478  0.16973777    -0.89470
H4127       H  0.89613768  0.63908508  0.11132608     0.34620
H4128       H  0.91990252  0.64346624  0.08843875     0.39720
H4129       H  0.94874040  0.73285844  0.18495459     0.39340
H4130       H  0.96718391  0.74534634  0.15964480     0.34230
C4131       C  0.66035022  0.86868885  0.43237895    -0.27500
C4132       C  0.67652284  0.85008980  0.44627094    -0.15580
C4133       C  0.69932148  0.86058455  0.45875145     0.35050
C4134       C  0.70690273  0.88861495  0.45398691    -0.26950
C4135       C  0.69068943  0.90664027  0.43937156    -0.16190
C4136       C  0.66646528  0.89692304  0.43032021     0.36140
N4137       N  0.64858641  0.91581850  0.41793408    -0.90440
H4138       H  0.64209651  0.86133059  0.42384808     0.17250
H4139       H  0.72574610  0.89612902  0.46085110     0.17240
N4140       N  0.71422529  0.84323923  0.47643042    -0.89470
H4141       H  0.63145650  0.90541266  0.41220718     0.34620
H4142       H  0.64316291  0.93038911  0.43243467     0.39720
H4143       H  0.70216442  0.83786951  0.49270247     0.39340
H4144       H  0.72972864  0.85466086  0.48463357     0.34230
C4145       C  0.67009094  0.61106933  0.41597476    -0.27500
C4146       C  0.68879661  0.59717393  0.43143348    -0.15580
C4147       C  0.70195608  0.61211067  0.45207030     0.35050
C4148       C  0.69566493  0.64022960  0.45646746    -0.26950
C4149       C  0.67730025  0.65392077  0.44038201    -0.16190
C4150       C  0.66504179  0.63925152  0.41936845     0.36140
N4151       N  0.64710137  0.65232012  0.40117932    -0.90440
H4152       H  0.66055192  0.60030956  0.39951229     0.17250
H4153       H  0.70446352  0.65114126  0.47321330     0.17240
N4154       N  0.72202995  0.60011136  0.46843554    -0.89470
H4155       H  0.65466555  0.65023563  0.38173970     0.34620
H4156       H  0.64598558  0.67372668  0.40451584     0.39720
H4157       H  0.72498914  0.57924525  0.46397052     0.39340
H4158       H  0.71559678  0.60067029  0.98840597     0.34230
C4159       C  0.67617066  0.87505488  0.04146857    -0.27500
C4160       C  0.68327070  0.84968470  0.05372946    -0.15580
C4161       C  0.70244601  0.84980888  0.07374531     0.35050
C4162       C  0.71191035  0.87551461  0.08320820    -0.26950
C4163       C  0.70248915  0.90102075  0.07309099    -0.16190
C4164       C  0.68577476  0.90077617  0.05082453     0.36140
N4165       N  0.67725252  0.92645444  0.03902431    -0.90440
H4166       H  0.66209455  0.87487650  0.02526705     0.17250
H4167       H  0.72571395  0.87562051  0.09964986     0.17240
N4168       N  0.71110027  0.82411406  0.08543183    -0.89470
H4169       H  0.66418967  0.92252675  0.52336212     0.34620
H4170       H  0.69362619  0.93611496  0.03028906     0.39720
H4171       H  0.69521596  0.81508205  0.09562696     0.39340
H4172       H  0.72549894  0.82793220  0.09983043     0.34230
C4173       C  0.65961300  0.63158792  0.07593432    -0.27500
C4174       C  0.67642508  0.65061459  0.06268341    -0.15580
C4175       C  0.70124911  0.64149264  0.05411978     0.35050
C4176       C  0.70878243  0.61381920  0.05987542    -0.26950
C4177       C  0.69164706  0.59511130  0.07316908    -0.16190
C4178       C  0.66677547  0.60413099  0.08101597     0.36140
N4179       N  0.64897118  0.58540349  0.09470353    -0.90440
H4180       H  0.64031189  0.63808069  0.08213007     0.17250
H4181       H  0.72842727  0.60717764  0.05506776     0.17240
N4182       N  0.71860910  0.66005601  0.03980879    -0.89470
H4183       H  0.63095120  0.59491514  0.09799768     0.34620
H4184       H  0.65656910  0.58116734  0.11371927     0.39720
H4185       H  0.70999065  0.66458702  0.02133045     0.39340
H4186       H  0.73622185  0.65013732  0.03544232     0.34230
C4187       C  0.57589238  0.79553841  0.38458077    -0.27500
C4188       C  0.55424870  0.79789111  0.40196956    -0.15580
C4189       C  0.52962554  0.80393949  0.39126505     0.35050
C4190       C  0.52711263  0.80821175  0.36347015    -0.26950
C4191       C  0.54889830  0.80738938  0.34613546    -0.16190
C4192       C  0.57345388  0.80046270  0.35670531     0.36140
N4193       N  0.59599808  0.80026217  0.33940415    -0.90440
H4194       H  0.59487704  0.79086241  0.39291711     0.17250
H4195       H  0.50850077  0.81496134  0.35559184     0.17240
N4196       N  0.50800150  0.80892271  0.40904087    -0.89470
H4197       H  0.61270077  0.79521479  0.35033849     0.34620
H4198       H  0.59320145  0.78432778  0.32541861     0.39720
H4199       H  0.50203979  0.78974994  0.41708159     0.39340
H4200       H  0.49224922  0.81711364  0.39848151     0.34230
C4201       C  0.54006599  0.79213500  0.11763095    -0.27500
C4202       C  0.56114706  0.80344169  0.10286060    -0.15580
C4203       C  0.58076705  0.81869230  0.11669093     0.35050
C4204       C  0.57754467  0.82429384  0.14420160    -0.26950
C4205       C  0.55550912  0.81477312  0.15841207    -0.16190
C4206       C  0.53676216  0.79807289  0.14514395     0.36140
N4207       N  0.51342434  0.78906833  0.15902386    -0.90440
H4208       H  0.52522774  0.78002730  0.10734175     0.17250
H4209       H  0.59154863  0.83767542  0.15430668     0.17240
N4210       N  0.60353115  0.82920386  0.10276528    -0.89470
H4211       H  0.50138936  0.77770093  0.14608897     0.34620
H4212       H  0.50282055  0.80679167  0.16413516     0.39720
H4213       H  0.61458936  0.81205295  0.09690052     0.39340
H4214       H  0.61537538  0.84089870  0.11565389     0.34230
C4215       C  0.57768918  0.67132002  0.36286669    -0.27500
C4216       C  0.56368147  0.68897513  0.34584221    -0.15400
C4217       C  0.55345255  0.71372729  0.35667386     0.35050
C4218       C  0.55362262  0.71766823  0.38496733    -0.26950
C4219       C  0.56397980  0.69730754  0.40234747    -0.16190
C4220       C  0.57678508  0.67419433  0.39082930     0.36140
N4221       N  0.58725291  0.65246643  0.40747185    -0.90440
H4222       H  0.58624857  0.65270677  0.35453500     0.17250
H4223       H  0.54472722  0.73603658  0.39345490     0.17240
N4224       N  0.54103057  0.73345428  0.33933133    -0.89470
H4225       H  0.59590274  0.63698842  0.39579881     0.34620
H4226       H  0.57153314  0.64282462  0.41742776     0.39720
H4227       H  0.55544553  0.74195794  0.32671074     0.39340
H4228       H  0.53344703  0.74984072  0.35057825     0.34230
C4229       C  0.58072120  0.67982550  0.14727698    -0.27500
C4230       C  0.55906253  0.68911894  0.16182052    -0.15580
C4231       C  0.54077793  0.70623780  0.14886215     0.35050
C4232       C  0.54311733  0.71153185  0.12106219    -0.26950
C4233       C  0.56338257  0.69989037  0.10591905    -0.16190
C4234       C  0.58347356  0.68555062  0.11965313     0.36140
N4235       N  0.60631228  0.67621158  0.10554745    -0.90440
H4236       H  0.59477015  0.66659535  0.15720169     0.17250
H4237       H  0.52815673  0.72338192  0.11094643     0.17240
N4238       N  0.51874375  0.71644516  0.16350018    -0.89470
H4239       H  0.61877981  0.66558999  0.11853513     0.34620
H4240       H  0.61661934  0.69393974  0.09908156     0.39720
H4241       H  0.50682141  0.69932743  0.16837030     0.39340
H4242       H  0.50788369  0.72925672  0.15094927     0.34230
N4243       N  0.65604090  0.71464326  0.53295941    -0.07300
N4244       N  0.67557159  0.70095283  0.54456589    -0.59420
N4245       N  0.63496250  0.69797209  0.97353946    -0.06980
N4246       N  0.63932445  0.67536937  0.95971969    -0.61550
N4247       N  0.65566569  0.71457722  0.97341528    -0.06580
N4248       N  0.67503163  0.70245593  0.96012783    -0.59400
N4249       N  0.63476568  0.69889976  0.53393965    -0.06260
N4250       N  0.63889573  0.67580548  0.54703735    -0.61900
C4251       C  0.66411202  0.67686869  0.55368662     0.94870
C4252       C  0.66402203  0.67832802  0.95122073     0.94650
N4253       N  0.55702004  0.71715720  0.97130929    -0.07490
N4254       N  0.54859279  0.71934232  0.94614402    -0.60000
N4255       N  0.57569033  0.69916460  0.53579842    -0.05610
N4256       N  0.57972414  0.68861514  0.55987543    -0.61250
N4257       N  0.55738049  0.71802672  0.53662135    -0.07520
N4258       N  0.54877270  0.72069384  0.56167517    -0.60270
N4259       N  0.57547169  0.69845922  0.97249419    -0.05250
N4260       N  0.57964669  0.68752963  0.94868142    -0.61340
Mn4261     Mn  0.60462657  0.69838675  0.50392534     1.18440
C4262       C  0.56278533  0.70041059  0.93225492     0.96960
C4263       C  0.56297742  0.70215597  0.57600039     0.97620
N4264       N  0.65620783  0.78427093  0.97220893    -0.07540
N4265       N  0.67604843  0.79928418  0.96219918    -0.63850
N4266       N  0.63633072  0.80246567  0.53025995    -0.06340
N4267       N  0.64251976  0.82681186  0.54038137    -0.64520
N4268       N  0.65643228  0.78540278  0.53121981    -0.07040
N4269       N  0.67689874  0.79879018  0.54156097    -0.64110
N4270       N  0.63453439  0.79872682  0.96996305    -0.05940
N4271       N  0.63879596  0.82205303  0.95714763    -0.64800
Mn4272     Mn  0.65721689  0.74965332  0.00263325     1.10660
C4273       C  0.66448284  0.82268756  0.95249353     0.98180
C4274       C  0.66762819  0.82451999  0.54739989     0.98250
N4275       N  0.55741864  0.78141070  0.53476591    -0.07050
N4276       N  0.54789716  0.78028044  0.55954922    -0.62430
N4277       N  0.57529637  0.79775759  0.96951120    -0.06370
N4278       N  0.57752820  0.80798706  0.94490341    -0.59160
N4279       N  0.55581595  0.77989717  0.97098119    -0.07680
N4280       N  0.54411843  0.77790128  0.94741350    -0.61990
N4281       N  0.57619898  0.80016754  0.53328106    -0.06670
N4282       N  0.57973266  0.81211071  0.55681657    -0.59180
Mn4283     Mn  0.55531937  0.74899235  0.50357630     1.20190
Mn4284     Mn  0.60504546  0.79996645  0.00077025     1.10090
Cl4285     Cl  0.60616646  0.74929725  0.50301750    -0.87150
C4286       C  0.56202013  0.79960986  0.57314398     0.95180
C4287       C  0.55779417  0.79564237  0.93139304     0.94980
N4288       N  0.94003313  0.72068661  0.53803527    -0.07300
N4289       N  0.94870450  0.72165467  0.56317299    -0.59420
N4290       N  0.92463072  0.70157389  0.97272060    -0.06980
N4291       N  0.92179511  0.69144366  0.94830020    -0.61550
N4292       N  0.94404082  0.71958768  0.97342018    -0.06580
N4293       N  0.95490893  0.72177628  0.94925590    -0.59400
N4294       N  0.92139296  0.70188663  0.53613034    -0.06260
N4295       N  0.91719346  0.68965206  0.55947789    -0.61900
C4296       C  0.93437784  0.70177505  0.57632322     0.94870
C4297       C  0.94069248  0.70420004  0.93377762     0.94650
N4298       N  0.84455355  0.71745198  0.97057569    -0.07490
N4299       N  0.82565616  0.70453281  0.95702008    -0.60000
N4300       N  0.86197705  0.70144593  0.53140106    -0.05610
N4301       N  0.85671940  0.67903532  0.54546732    -0.61250
N4302       N  0.84155202  0.71798348  0.53020340    -0.07520
N4303       N  0.82146535  0.70593772  0.54293494    -0.60270
N4304       N  0.86530528  0.70137055  0.97124463    -0.05250
N4305       N  0.86150923  0.67859327  0.95750261    -0.61340
Mn4306     Mn  0.89385361  0.70129222  0.50290006     1.18440
C4307       C  0.83705304  0.68055677  0.94854662     0.96960
C4308       C  0.83175935  0.68194080  0.55272092     0.97620
N4309       N  0.94384881  0.78246287  0.97110297    -0.07540
N4310       N  0.95236956  0.77901278  0.94598765    -0.63850
N4311       N  0.92230829  0.80301621  0.53401346    -0.06340
N4312       N  0.91828167  0.81611006  0.55676273    -0.64520
N4313       N  0.94045674  0.78415469  0.53663516    -0.07040
N4314       N  0.94903330  0.78394631  0.56179974    -0.64110
N4315       N  0.92592721  0.80174997  0.97132995    -0.05940
N4316       N  0.92233859  0.81183599  0.94707116    -0.64800
Mn4317     Mn  0.94381615  0.75179317  0.50504616     1.10660
C4318       C  0.93865844  0.79764547  0.93114650     0.98180
C4319       C  0.93521871  0.80445613  0.57388889     0.98250
N4320       N  0.84240743  0.78806687  0.52933873    -0.07050
N4321       N  0.82278225  0.80043614  0.54211095    -0.62430
N4322       N  0.86728413  0.80217210  0.96909375    -0.06370
N4323       N  0.86445174  0.82527758  0.95568262    -0.59160
N4324       N  0.84538635  0.78749949  0.96970485    -0.07680
N4325       N  0.82671029  0.80215114  0.95778781    -0.61990
N4326       N  0.86311893  0.80466251  0.52948990    -0.06670
N4327       N  0.85843935  0.82761642  0.54267526    -0.59180
Mn4328     Mn  0.84211845  0.75272489  0.49997028     1.20190
Mn4329     Mn  0.89521418  0.80299066  0.50110781     1.10090
Cl4330     Cl  0.89313719  0.75213697  0.50245019    -0.87150
C4331       C  0.83352949  0.82497194  0.55055277     0.95180
C4332       C  0.83932819  0.82561926  0.94875697     0.94980
N4333       N  0.72358590  0.53551613  0.59865030    -0.07300
N4334       N  0.71179712  0.54716286  0.57772872    -0.59420
N4335       N  0.78095615  0.55369668  0.62180453    -0.06980
N4336       N  0.79367439  0.57695527  0.61732442    -0.61550
N4337       N  0.78143663  0.53739962  0.60054219    -0.06580
N4338       N  0.79361911  0.55078024  0.58049547    -0.59400
N4339       N  0.72233313  0.55250220  0.61940581    -0.06260
N4340       N  0.70921669  0.57492050  0.61350451    -0.61900
C4341       C  0.70254006  0.57145317  0.58782650     0.94870
C4342       C  0.80159652  0.57526180  0.59179972     0.94650
N4343       N  0.78023512  0.53680828  0.70250760    -0.07490
N4344       N  0.80347764  0.53669126  0.71404262    -0.60000
N4345       N  0.71835595  0.55316900  0.68100346    -0.05610
N4346       N  0.69520788  0.56479339  0.67818555    -0.61250
N4347       N  0.71804219  0.53537944  0.70106410    -0.07520
N4348       N  0.69455926  0.53469337  0.71239642    -0.60270
N4349       N  0.78030836  0.55473557  0.68256400    -0.05250
N4350       N  0.80350682  0.56682155  0.67993416    -0.61340
Mn4351     Mn  0.75036198  0.55366540  0.65161167     1.18440
C4352       C  0.81771114  0.55580567  0.69996691     0.96960
C4353       C  0.68061852  0.55346712  0.69817948     0.97620
N4354       N  0.78237059  0.96687983  0.60220973    -0.07540
N4355       N  0.79486273  0.95386912  0.58245145    -0.63850
N4356       N  0.72366249  0.94907567  0.62110868    -0.06340
N4357       N  0.71329675  0.92485342  0.61497671    -0.64520
N4358       N  0.72462716  0.96560458  0.59982155    -0.07040
N4359       N  0.71534803  0.95194568  0.57864875    -0.64110
N4360       N  0.78207776  0.95076228  0.62378914    -0.05940
N4361       N  0.79500640  0.92778641  0.61955490    -0.64800
Mn4362     Mn  0.75306834  0.50138160  0.59934928     1.10660
C4363       C  0.80317451  0.92980764  0.59404038     0.98180
C4364       C  0.70816487  0.92659688  0.58866425     0.98250
N4365       N  0.71853226  0.97185212  0.70189550    -0.07050
N4366       N  0.69444337  0.97440539  0.71117743    -0.62430
N4367       N  0.78119562  0.95330108  0.68550600    -0.06370
N4368       N  0.80444816  0.94157747  0.68442771    -0.59160
N4369       N  0.78071887  0.97253225  0.70415365    -0.07680
N4370       N  0.80375501  0.97412357  0.71608143    -0.61990
N4371       N  0.71910712  0.95276083  0.68307594    -0.06670
N4372       N  0.69547423  0.94205201  0.67939997    -0.59180
Mn4373     Mn  0.74944256  0.00406347  0.70392038     1.20190
Mn4374     Mn  0.75142461  0.95121474  0.65396796     1.10090
Cl4375     Cl  0.75107631  0.00252876  0.65191403    -0.87150
C4376       C  0.68016278  0.95562120  0.69717599     0.95180
C4377       C  0.81849706  0.95460568  0.70368178     0.94980
N4378       N  0.71770297  0.52954470  0.80786204    -0.07300
N4379       N  0.69439849  0.52798734  0.79645384    -0.59420
N4380       N  0.77918182  0.55140740  0.82601904    -0.06980
N4381       N  0.80205251  0.56399748  0.82890536    -0.61550
N4382       N  0.78057477  0.53150978  0.80803920    -0.06580
N4383       N  0.80482260  0.53005223  0.79866934    -0.59400
N4384       N  0.71775316  0.54918661  0.82611477    -0.06260
N4385       N  0.69479884  0.56149660  0.82730678    -0.61900
C4386       C  0.68031285  0.54823414  0.80861308     0.94870
C4387       C  0.81783828  0.55077131  0.81157173     0.94650
N4388       N  0.77866495  0.53757556  0.90846872    -0.07490
N4389       N  0.79224869  0.55003211  0.92775928    -0.60000
N4390       N  0.71942613  0.55140753  0.88784658    -0.05610
N4391       N  0.70618169  0.57401443  0.89244532    -0.61250
N4392       N  0.72045751  0.53558729  0.90954991    -0.07520
N4393       N  0.70828971  0.54826595  0.92970190    -0.60270
N4394       N  0.77799140  0.55388586  0.88712078    -0.05250
N4395       N  0.79161058  0.57672379  0.89092014    -0.61340
Mn4396     Mn  0.74845739  0.55170833  0.85629945     1.18440
C4397       C  0.80060129  0.57412022  0.91596318     0.96960
C4398       C  0.69929395  0.57213146  0.91833915     0.97620
N4399       N  0.78148932  0.96761290  0.80896917    -0.07540
N4400       N  0.80459527  0.96824580  0.79679863    -0.63850
N4401       N  0.72016860  0.94731426  0.83008875    -0.06340
N4402       N  0.69764765  0.93398123  0.83296093    -0.64520
N4403       N  0.71922076  0.96518835  0.81010698    -0.07040
N4404       N  0.69580066  0.96415393  0.79888808    -0.64110
N4405       N  0.78163724  0.94939193  0.82863312    -0.05940
N4406       N  0.80462181  0.93725840  0.83018290    -0.64800
Mn4407     Mn  0.74969677  0.49849828  0.80711092     1.10660
C4408       C  0.81885070  0.94889011  0.81005784     0.98180
C4409       C  0.68257985  0.94440793  0.81327945     0.98250
N4410       N  0.72243487  0.96633391  0.91223598    -0.07050
N4411       N  0.71025343  0.95499802  0.93330355    -0.62430
N4412       N  0.78100622  0.95126440  0.89007896    -0.06370
N4413       N  0.79466826  0.92913239  0.89552401    -0.59160
N4414       N  0.78036261  0.96840233  0.91074807    -0.07680
N4415       N  0.79304680  0.95706252  0.93122384    -0.61990
N4416       N  0.72257230  0.94847082  0.89212028    -0.06670
N4417       N  0.71005928  0.92549487  0.89869394    -0.59180
Mn4418     Mn  0.75046355  0.50204722  0.91124997     1.20190
Mn4419     Mn  0.75128130  0.94886975  0.85975813     1.10090
Cl4420     Cl  0.74988106  0.50025581  0.85883206    -0.87150
C4421       C  0.70237418  0.92971984  0.92408879     0.95180
C4422       C  0.80224141  0.93288712  0.92086890     0.94980
N4423       N  0.52879497  0.66340376  0.72091045    -0.07300
N4424       N  0.54181349  0.68435194  0.70933707    -0.59420
N4425       N  0.96997296  0.64037283  0.70508878    -0.06980
N4426       N  0.95543607  0.64424505  0.68384476    -0.61550
N4427       N  0.97001228  0.66253080  0.72069025    -0.06580
N4428       N  0.95606022  0.68244106  0.70908057    -0.59400
N4429       N  0.52932087  0.64149121  0.70495741    -0.06260
N4430       N  0.54333776  0.64678683  0.68331831    -0.61900
C4431       C  0.55133663  0.67331532  0.68616350     0.94870
C4432       C  0.94661057  0.67028485  0.68630993     0.94650
N4433       N  0.96773580  0.55748966  0.72600901    -0.07490
N4434       N  0.94416878  0.54583009  0.72724098    -0.60000
N4435       N  0.53035276  0.57706043  0.70715107    -0.05610
N4436       N  0.55338476  0.57868529  0.69504685    -0.61250
N4437       N  0.53037261  0.55775300  0.72589805    -0.07520
N4438       N  0.55368879  0.54600641  0.72695094    -0.60270
N4439       N  0.96847335  0.57651991  0.70700999    -0.05250
N4440       N  0.94561181  0.57797541  0.69483808    -0.61340
Mn4441     Mn  0.49961036  0.60840625  0.70567409     1.18440
C4442       C  0.93073584  0.55837144  0.70724985     0.96960
C4443       C  0.56768613  0.55886022  0.70718278     0.97620
N4444       N  0.96988213  0.66453999  0.78793864    -0.07540
N4445       N  0.95852073  0.68612166  0.79967348    -0.63850
N4446       N  0.52847187  0.64369114  0.80449052    -0.06340
N4447       N  0.54295083  0.64861085  0.82556649    -0.64520
N4448       N  0.52849098  0.66532844  0.78810602    -0.07040
N4449       N  0.54242830  0.68602251  0.79899717    -0.64110
N4450       N  0.96891300  0.64297365  0.80443928    -0.05940
N4451       N  0.95586639  0.64906536  0.82637772    -0.64800
Mn4452     Mn  0.99928698  0.66512033  0.75432974     1.10660
C4453       C  0.94925740  0.67587639  0.82346872     0.98180
C4454       C  0.55186841  0.67476304  0.82220769     0.98250
N4455       N  0.52963624  0.55911035  0.78750552    -0.07050
N4456       N  0.55283794  0.54724758  0.78661179    -0.62430
N4457       N  0.96808752  0.57892666  0.80563922    -0.06370
N4458       N  0.94532893  0.58085786  0.81810002    -0.59160
N4459       N  0.96749535  0.55886200  0.78781583    -0.07680
N4460       N  0.94406224  0.54684702  0.78774953    -0.61990
N4461       N  0.52986498  0.57965795  0.80482163    -0.06670
N4462       N  0.55321059  0.58226626  0.81584722    -0.59180
Mn4463     Mn  0.49873643  0.55686825  0.75682191     1.20190
Mn4464     Mn  0.49883944  0.61087291  0.80515538     1.10090
Cl4465     Cl  0.49913062  0.61084589  0.75545575    -0.87150
C4466       C  0.56738927  0.56181035  0.80447701     0.95180
C4467       C  0.93055423  0.56051236  0.80706786     0.94980
N4468       N  0.53212359  0.94543250  0.72366662    -0.07300
N4469       N  0.55465989  0.95914242  0.72191787    -0.59420
N4470       N  0.96978688  0.92768901  0.70641993    -0.06980
N4471       N  0.94655405  0.92634224  0.69502741    -0.61550
N4472       N  0.97014335  0.94668544  0.72527017    -0.06580
N4473       N  0.94694904  0.95860318  0.72699624    -0.59400
N4474       N  0.53100216  0.92625361  0.70501817    -0.06260
N4475       N  0.55251207  0.92642166  0.69029011    -0.61900
C4476       C  0.56717697  0.94721067  0.70075306     0.94870
C4477       C  0.93237009  0.94581321  0.70784148     0.94650
N4478       N  0.96793856  0.84149218  0.71834308    -0.07490
N4479       N  0.95292325  0.82305635  0.70537386    -0.60000
N4480       N  0.52790447  0.86177158  0.70265429    -0.05610
N4481       N  0.54138813  0.85680019  0.68070527    -0.61250
N4482       N  0.52672789  0.83942739  0.71815464    -0.07520
N4483       N  0.53872628  0.81852001  0.70602090    -0.60270
N4484       N  0.96844907  0.86490432  0.70454143    -0.05250
N4485       N  0.95304604  0.86358094  0.68383931    -0.61340
Mn4486     Mn  0.99951914  0.89536352  0.70444761     1.18440
C4487       C  0.94328087  0.83767300  0.68392802     0.96960
C4488       C  0.54832225  0.83002293  0.68295333     0.97620
N4489       N  0.97060793  0.94311386  0.78663661    -0.07540
N4490       N  0.94760087  0.95528497  0.78560295    -0.63850
N4491       N  0.53138090  0.92126355  0.80400971    -0.06340
N4492       N  0.55407480  0.91840271  0.81626541    -0.64520
N4493       N  0.53262563  0.94154427  0.78625934    -0.07040
N4494       N  0.55638787  0.95266155  0.78597945    -0.64110
N4495       N  0.96968395  0.92224640  0.80374917    -0.05940
N4496       N  0.94611250  0.91995092  0.81460986    -0.64800
Mn4497     Mn  0.00161557  0.94568990  0.75568361     1.10660
C4498       C  0.93246541  0.94089728  0.80332304     0.98180
C4499       C  0.56951780  0.93825967  0.80506473     0.98250
N4500       N  0.52691849  0.83589453  0.78536818    -0.07050
N4501       N  0.53712033  0.81372750  0.79736281    -0.62430
N4502       N  0.96940815  0.85763601  0.80294786    -0.06370
N4503       N  0.95677406  0.85082604  0.82505133    -0.59160
N4504       N  0.96901942  0.83678759  0.78572226    -0.07680
N4505       N  0.95692826  0.81490417  0.79685786    -0.61990
N4506       N  0.52874749  0.85738418  0.80175590    -0.06670
N4507       N  0.54135193  0.85072232  0.82367459    -0.59180
Mn4508     Mn  0.99760089  0.83730235  0.75168966     1.20190
Mn4509     Mn  0.99974412  0.89011404  0.80343648     1.10090
Cl4510     Cl  0.99975789  0.89189345  0.75384190    -0.87150
C4511       C  0.54671047  0.82363414  0.82103095     0.95180
C4512       C  0.94887075  0.82441205  0.82120293     0.94980
C4513       C  0.88880570  0.92290351  0.81897796    -0.27500
C4514       C  0.90345554  0.94361180  0.80548607    -0.15580
C4515       C  0.89006914  0.96585236  0.79324301     0.35050
C4516       C  0.86252546  0.96625418  0.79377983    -0.26950
C4517       C  0.84781678  0.94562418  0.80731357    -0.16190
C4518       C  0.86127966  0.92366890  0.82012478     0.36140
N4519       N  0.84706245  0.90214669  0.83427776    -0.90440
H4520       H  0.89883941  0.90577252  0.82850274     0.17250
H4521       H  0.85251309  0.98351622  0.78453407     0.17240
N4522       N  0.90447442  0.98817245  0.78057008    -0.89470
H4523       H  0.85985485  0.88797480  0.84308303     0.34620
H4524       H  0.83619238  0.89101530  0.82010670     0.39720
H4525       H  0.91680359  0.99696306  0.79493650     0.39340
H4526       H  0.89195497  0.00405820  0.77472431     0.34230
C4527       C  0.61037529  0.93752573  0.83286809    -0.27500
C4528       C  0.59846972  0.93839996  0.80763152    -0.15580
C4529       C  0.61439564  0.93889750  0.78461397     0.35050
C4530       C  0.64173795  0.93971253  0.78670444    -0.26950
C4531       C  0.65381529  0.93974644  0.81181800    -0.16190
C4532       C  0.63789652  0.93860617  0.83523262     0.36140
N4533       N  0.64956537  0.94063604  0.86128560    -0.90440
H4534       H  0.59820523  0.93695094  0.85074594     0.17250
H4535       H  0.65354547  0.94102054  0.76859101     0.17240
N4536       N  0.60263792  0.94014052  0.75888455    -0.89470
H4537       H  0.63510672  0.94322913  0.87592923     0.34620
H4538       H  0.65857165  0.92162360  0.86518673     0.39720
H4539       H  0.61155489  0.92561120  0.74631116     0.39340
H4540       H  0.60677760  0.96017250  0.75217577     0.34230
C4541       C  0.88990677  0.53657763  0.82314770    -0.27500
C4542       C  0.90168866  0.55931074  0.80984605    -0.15580
C4543       C  0.88556552  0.58106169  0.80023755     0.35050
C4544       C  0.85828596  0.57812330  0.80199446    -0.26950
C4545       C  0.84663251  0.55387612  0.81225782    -0.16190
C4546       C  0.86247166  0.53385415  0.82481503     0.36140
N4547       N  0.85069999  0.51225054  0.84103536    -0.90440
H4548       H  0.90213711  0.52116222  0.83264814     0.17250
H4549       H  0.84598910  0.59480106  0.79492883     0.17240
N4550       N  0.89589232  0.60609753  0.78806682    -0.89470
H4551       H  0.86496868  0.49888253  0.84848952     0.34620
H4552       H  0.83838843  0.50033983  0.82895929     0.39720
H4553       H  0.91610554  0.60565399  0.78556239     0.39340
H4554       H  0.89167369  0.62267301  0.80088439     0.34230
C4555       C  0.64063981  0.57826149  0.80993088    -0.27500
C4556       C  0.65143044  0.55174269  0.80643786    -0.15580
C4557       C  0.63415733  0.52875093  0.80374908     0.35050
C4558       C  0.60709883  0.53261914  0.80337174    -0.26950
C4559       C  0.59626773  0.55902715  0.80676194    -0.16190
C4560       C  0.61344338  0.58216438  0.81019337     0.36140
N4561       N  0.60402024  0.60993424  0.81332425    -0.90440
H4562       H  0.65345348  0.59614535  0.81256093     0.17250
H4563       H  0.59437913  0.51460870  0.80095139     0.17240
N4564       N  0.64341564  0.50092611  0.80303535    -0.89470
H4565       H  0.59273236  0.61063637  0.83083444     0.34620
H4566       H  0.59232437  0.61488166  0.79685733     0.39720
H4567       H  0.65457515  0.49760557  0.82026949     0.39340
H4568       H  0.65516479  0.49870897  0.78603750     0.34230
C4569       C  0.86029014  0.93027225  0.69259280    -0.27500
C4570       C  0.84764285  0.95211041  0.70598503    -0.15580
C4571       C  0.86331761  0.97234234  0.71911364     0.35050
C4572       C  0.89077638  0.97030887  0.71851412    -0.26950
C4573       C  0.90332650  0.94823702  0.70562894    -0.16190
C4574       C  0.88772010  0.92809303  0.69233336     0.36140
N4575       N  0.89946162  0.90518770  0.67862658    -0.90440
H4576       H  0.84883367  0.91468624  0.68208446     0.17250
H4577       H  0.90252655  0.98630858  0.72798924     0.17240
N4578       N  0.85143908  0.99543646  0.73235341    -0.89470
H4579       H  0.89362630  0.90582778  0.65852863     0.34620
H4580       H  0.89221854  0.88670268  0.68712968     0.39720
H4581       H  0.84201772  0.00647608  0.71741435     0.39340
H4582       H  0.86556451  0.00917479  0.73975817     0.34230
C4583       C  0.63825566  0.93339938  0.68215780    -0.27500
C4584       C  0.65095632  0.95473549  0.69647409    -0.15580
C4585       C  0.63552568  0.97557129  0.70858142     0.35050
C4586       C  0.60819465  0.97494204  0.70546770    -0.26950
C4587       C  0.59546807  0.95177979  0.69437552    -0.16190
C4588       C  0.61074946  0.93136426  0.68132886     0.36140
N4589       N  0.59849321  0.90815378  0.66805904    -0.90440
H4590       H  0.64982142  0.91763226  0.67229605     0.17250
H4591       H  0.59659673  0.99092152  0.71498835     0.17240
N4592       N  0.64728837  0.99644066  0.72534257    -0.89470
H4593       H  0.61251096  0.89458058  0.66039720     0.34620
H4594       H  0.58842161  0.91601996  0.65150396     0.39720
H4595       H  0.65528793  0.98614730  0.74181983     0.39340
H4596       H  0.63311420  0.00967714  0.73324734     0.34230
C4597       C  0.88677619  0.57251881  0.72288009    -0.27500
C4598       C  0.90187465  0.55713478  0.70465159    -0.15580
C4599       C  0.88914661  0.54288328  0.68347334     0.35050
C4600       C  0.86168756  0.54338420  0.68192681    -0.26950
C4601       C  0.84663535  0.55785872  0.70090318    -0.16190
C4602       C  0.85930362  0.57324724  0.72096083     0.36140
N4603       N  0.84419160  0.59058655  0.73838637    -0.90440
H4604       H  0.89656086  0.58437860  0.73837006     0.17250
H4605       H  0.85195920  0.53176255  0.66617755     0.17240
N4606       N  0.90323452  0.52731107  0.66359058    -0.89470
H4607       H  0.85647596  0.60267612  0.75040894     0.34620
H4608       H  0.83301803  0.57755448  0.75090164     0.39720
H4609       H  0.92333591  0.52781628  0.66701854     0.39340
H4610       H  0.90022189  0.53691787  0.64499116     0.34230
C4611       C  0.64015489  0.57164737  0.71979632    -0.27500
C4612       C  0.65173747  0.55564927  0.69958849    -0.15580
C4613       C  0.63560348  0.54117717  0.68122087     0.35050
C4614       C  0.60815357  0.54218429  0.68411872    -0.26950
C4615       C  0.59659427  0.55770654  0.70472070    -0.16190
C4616       C  0.61273050  0.57331411  0.72214537     0.36140
N4617       N  0.60114898  0.59162160  0.74148604    -0.90440
H4618       H  0.65254267  0.58309095  0.73358086     0.17250
H4619       H  0.59574394  0.53067581  0.67040907     0.17240
N4620       N  0.64719297  0.52451646  0.66047848    -0.89470
H4621       H  0.61562445  0.60184921  0.75257284     0.34620
H4622       H  0.59037395  0.57938670  0.75498197     0.39720
H4623       H  0.65700365  0.53797598  0.64721518     0.39340
H4624       H  0.63271822  0.51436310  0.64932110     0.34230
C4625       C  0.83357409  0.85962062  0.58569137    -0.27500
C4626       C  0.82066910  0.84902247  0.56310510    -0.15580
C4627       C  0.80338540  0.86663451  0.54883917     0.35050
C4628       C  0.79928308  0.89402110  0.55801961    -0.26950
C4629       C  0.81271876  0.90455545  0.58043878    -0.16190
C4630       C  0.83035935  0.88703787  0.59412696     0.36140
N4631       N  0.84605491  0.89659521  0.61623567    -0.90440
H4632       H  0.84792097  0.84693974  0.59588522     0.17250
H4633       H  0.78502155  0.90687663  0.54796480     0.17240
N4634       N  0.79005638  0.85780143  0.52492324    -0.89470
H4635       H  0.83907575  0.88686750  0.63371683     0.34620
H4636       H  0.84486338  0.91808739  0.61893922     0.39720
H4637       H  0.79400020  0.83710968  0.52030345     0.39340
H4638       H  0.79717920  0.86990695  0.50893351     0.34230
C4639       C  0.82553080  0.61908720  0.59487303    -0.27500
C4640       C  0.81063746  0.60122693  0.57857767    -0.15580
C4641       C  0.79914254  0.61200533  0.55505180     0.35050
C4642       C  0.80338920  0.64033771  0.54823174    -0.26950
C4643       C  0.81818760  0.65803706  0.56493649    -0.16190
C4644       C  0.82870530  0.64725823  0.58891136     0.36140
N4645       N  0.84359890  0.66418912  0.60725065    -0.90440
H4646       H  0.83383445  0.61129332  0.61342139     0.17250
H4647       H  0.79630109  0.64825881  0.52922668     0.17240
N4648       N  0.78290831  0.59451656  0.53859880    -0.89470
H4649       H  0.83405724  0.66345478  0.62587329     0.34620
H4650       H  0.84368374  0.68511795  0.60149104     0.39720
H4651       H  0.79479181  0.57909122  0.53042978     0.39340
H4652       H  0.77551403  0.60586084  0.52240047     0.34230
C4653       C  0.84596819  0.87434002  0.93455359    -0.27500
C4654       C  0.82800527  0.85302088  0.94175669    -0.15580
C4655       C  0.80165996  0.85995708  0.94604151     0.35050
C4656       C  0.79401659  0.88795724  0.94298481    -0.26950
C4657       C  0.81216959  0.90890446  0.93552292    -0.16190
C4658       C  0.83838593  0.90198518  0.93147036     0.36140
N4659       N  0.85707783  0.92295697  0.92315242    -0.90440
H4660       H  0.86633347  0.86951102  0.93119594     0.17250
H4661       H  0.77350611  0.89317053  0.94450984     0.17240
N4662       N  0.78281267  0.83877027  0.95304073    -0.89470
H4663       H  0.87581884  0.91458301  0.92178930     0.34620
H4664       H  0.85221626  0.92941961  0.90374172     0.39720
H4665       H  0.78158581  0.82502421  0.93684306     0.39340
H4666       H  0.76432377  0.84750290  0.95506029     0.34230
C4667       C  0.79642388  0.61453043  0.94594265    -0.27500
C4668       C  0.81227959  0.59846915  0.92894517    -0.15580
C4669       C  0.83463014  0.61075708  0.91693680     0.35050
C4670       C  0.84003308  0.63885836  0.92128919    -0.26950
C4671       C  0.82445595  0.65508716  0.93829134    -0.16190
C4672       C  0.80246839  0.64277957  0.95099333     0.36140
N4673       N  0.78692908  0.65861523  0.96944819    -0.90440
H4674       H  0.77868655  0.60538263  0.95425955     0.17250
H4675       H  0.85753089  0.64784472  0.91225422     0.17240
N4676       N  0.85198439  0.59544927  0.89970270    -0.89470
H4677       H  0.77188671  0.64623698  0.97754800     0.34620
H4678       H  0.77796264  0.67442965  0.95846470     0.39720
H4679       H  0.84679965  0.57438598  0.89888814     0.39340
H4680       H  0.87054952  0.59611601  0.90838230     0.34230
C4681       C  0.92039600  0.82092288  0.86020360    -0.27500
C4682       C  0.93944398  0.80797581  0.84459461    -0.15580
C4683       C  0.95494143  0.78718219  0.85652593     0.35050
C4684       C  0.95325720  0.78255377  0.88464645    -0.26950
C4685       C  0.93716243  0.79915400  0.90101474    -0.16190
C4686       C  0.91929202  0.81731696  0.88812952     0.36140
N4687       N  0.90090761  0.83343615  0.90331022    -0.90440
H4688       H  0.90834065  0.83671794  0.85096870     0.17250
H4689       H  0.96580321  0.76730522  0.89393479     0.17240
N4690       N  0.97372688  0.77253579  0.84053278    -0.89470
H4691       H  0.88744769  0.84303746  0.89062983     0.34620
H4692       H  0.91139684  0.84957155  0.91248251     0.39720
H4693       H  0.96335756  0.76064980  0.82653819     0.39340
H4694       H  0.98403519  0.75847945  0.85244879     0.34230
C4695       C  0.93352927  0.79154595  0.62278971    -0.27500
C4696       C  0.93578291  0.81216509  0.60264958    -0.15580
C4697       C  0.93395457  0.84043056  0.61016735     0.35050
C4698       C  0.93091616  0.84708874  0.63718274    -0.26950
C4699       C  0.93314577  0.82694797  0.65771699    -0.16190
C4700       C  0.93179631  0.79865943  0.65031610     0.36140
N4701       N  0.92722323  0.77707757  0.66978973    -0.90440
H4702       H  0.93197283  0.76995667  0.61700054     0.17250
H4703       H  0.92982422  0.86901355  0.64209393     0.17240
N4704       N  0.93623001  0.86318332  0.59126482    -0.89470
H4705       H  0.91012746  0.76648613  0.66427165     0.34620
H4706       H  0.92320677  0.78549786  0.68863758     0.39720
H4707       H  0.94292654  0.85658674  0.57256507     0.39340
H4708       H  0.95108123  0.87649729  0.59804333     0.34230
C4709       C  0.96701388  0.70086073  0.89204045    -0.27500
C4710       C  0.94237746  0.70286322  0.90403134    -0.15580
C4711       C  0.91985692  0.70217879  0.88739319     0.35050
C4712       C  0.92245469  0.69706322  0.85973872    -0.26950
C4713       C  0.94703282  0.69240753  0.84830582    -0.16190
C4714       C  0.96947498  0.69485704  0.86454754     0.36140
N4715       N  0.99448322  0.68790342  0.85352340    -0.90440
H4716       H  0.98430091  0.70170524  0.90452917     0.17250
H4717       H  0.90506757  0.69452415  0.84760983     0.17240
N4718       N  0.89409219  0.70617943  0.89795973    -0.89470
H4719       H  0.00871493  0.68846376  0.86844514     0.34620
H4720       H  0.99917934  0.70300830  0.83910756     0.39720
H4721       H  0.89387202  0.72487759  0.90865688     0.39340
H4722       H  0.88946448  0.68973648  0.91094049     0.34230
C4723       C  0.92132674  0.66774702  0.64468141    -0.27500
C4724       C  0.93642504  0.68425002  0.66194809    -0.15580
C4725       C  0.94802070  0.70881162  0.65181585     0.35050
C4726       C  0.94753856  0.71420534  0.62380719    -0.26950
C4727       C  0.93430759  0.69621199  0.60600430    -0.16190
C4728       C  0.92025360  0.67315443  0.61698474     0.36140
N4729       N  0.90614015  0.65416823  0.59994795    -0.90440
H4730       H  0.91224655  0.64887701  0.65251877     0.17250
H4731       H  0.95829491  0.73191935  0.61580897     0.17240
N4732       N  0.96170934  0.72708482  0.66973715    -0.89470
H4733       H  0.89613562  0.63908876  0.61132781     0.34620
H4734       H  0.91990034  0.64346805  0.58844008     0.39720
H4735       H  0.94874592  0.73285893  0.68495486     0.39340
H4736       H  0.96718845  0.74534627  0.65964415     0.34230
C4737       C  0.66035031  0.86868929  0.93238026    -0.27500
C4738       C  0.67652303  0.85008997  0.94627178    -0.15580
C4739       C  0.69932182  0.86058449  0.95875216     0.35050
C4740       C  0.70690320  0.88861489  0.95398772    -0.26950
C4741       C  0.69068979  0.90664047  0.93937279    -0.16190
C4742       C  0.66646541  0.89692350  0.93032189     0.36140
N4743       N  0.64858630  0.91581927  0.91793662    -0.90440
H4744       H  0.64209646  0.86133125  0.92384954     0.17250
H4745       H  0.72574671  0.89612877  0.96085170     0.17240
N4746       N  0.71422564  0.84323898  0.97643095    -0.89470
H4747       H  0.63145610  0.90541361  0.91221031     0.34620
H4748       H  0.64316339  0.93038974  0.93243758     0.39720
H4749       H  0.70216479  0.83786914  0.99270298     0.39340
H4750       H  0.72972900  0.85466052  0.98463419     0.34230
C4751       C  0.67009075  0.61106842  0.91597516    -0.27500
C4752       C  0.68879677  0.59717339  0.93143372    -0.15580
C4753       C  0.70195638  0.61211046  0.95207021     0.35050
C4754       C  0.69566508  0.64022939  0.95646719    -0.26950
C4755       C  0.67730006  0.65392022  0.94038188    -0.16190
C4756       C  0.66504140  0.63925060  0.91936866     0.36140
N4757       N  0.64710058  0.65231879  0.90117968    -0.90440
H4758       H  0.66055163  0.60030839  0.89951291     0.17250
H4759       H  0.70446383  0.65114132  0.97321278     0.17240
N4760       N  0.72203056  0.60011147  0.96843527    -0.89470
H4761       H  0.65466445  0.65023410  0.88173995     0.34620
H4762       H  0.64598469  0.67372540  0.90451592     0.39720
H4763       H  0.72498981  0.57924533  0.96397037     0.39340
H4764       H  0.71559589  0.60067004  0.48840616     0.34230
C4765       C  0.67617065  0.87505585  0.54146767    -0.27500
C4766       C  0.68327069  0.84968577  0.55372878    -0.15580
C4767       C  0.70244608  0.84981015  0.57374456     0.35050
C4768       C  0.71191055  0.87551599  0.58320711    -0.26950
C4769       C  0.70248942  0.90102205  0.57308963    -0.16190
C4770       C  0.68577488  0.90077723  0.55082329     0.36140
N4771       N  0.67725262  0.92645540  0.53902288    -0.90440
H4772       H  0.66209445  0.87487733  0.52526623     0.17250
H4773       H  0.72571420  0.87562206  0.59964873     0.17240
N4774       N  0.71110029  0.82411545  0.58543137    -0.89470
H4775       H  0.66418964  0.92252593  0.02336345     0.34620
H4776       H  0.69362627  0.93611582  0.53028748     0.39720
H4777       H  0.69521598  0.81508362  0.59562665     0.39340
H4778       H  0.72549901  0.82793373  0.59982988     0.34230
C4779       C  0.65961346  0.63158845  0.57593443    -0.27500
C4780       C  0.67642556  0.65061518  0.56268361    -0.15580
C4781       C  0.70124956  0.64149324  0.55411991     0.35050
C4782       C  0.70878284  0.61381974  0.55987541    -0.26950
C4783       C  0.69164745  0.59511179  0.57316897    -0.16190
C4784       C  0.66677588  0.60413148  0.58101590     0.36140
N4785       N  0.64897154  0.58540392  0.59470334    -0.90440
H4786       H  0.64031237  0.63808118  0.58213023     0.17250
H4787       H  0.72842768  0.60717819  0.55506772     0.17240
N4788       N  0.71860957  0.66005665  0.53980900    -0.89470
H4789       H  0.63095157  0.59491558  0.59799752     0.34620
H4790       H  0.65656943  0.58116765  0.61371906     0.39720
H4791       H  0.70999112  0.66458778  0.52133069     0.39340
H4792       H  0.73622230  0.65013796  0.53544247     0.34230
C4793       C  0.57589174  0.79553846  0.88458055    -0.27500
C4794       C  0.55424860  0.79789371  0.90196973    -0.15580
C4795       C  0.52962606  0.80394578  0.89126570     0.35050
C4796       C  0.52711323  0.80821845  0.86347084    -0.26950
C4797       C  0.54889845  0.80739308  0.84613567    -0.16190
C4798       C  0.57345340  0.80046333  0.85670514     0.36140
N4799       N  0.59599732  0.80026028  0.83940368    -0.90440
H4800       H  0.59487596  0.79085992  0.89291658     0.17250
H4801       H  0.50850210  0.81497074  0.85559292     0.17240
N4802       N  0.50800296  0.80893204  0.90904195    -0.89470
H4803       H  0.61269960  0.79521080  0.85033776     0.34620
H4804       H  0.59319885  0.78432637  0.82541802     0.39720
H4805       H  0.50204053  0.78976046  0.91708476     0.39340
H4806       H  0.49225061  0.81712285  0.89848258     0.34230
C4807       C  0.54006633  0.79213722  0.61763078    -0.27500
C4808       C  0.56114784  0.80344268  0.60286026    -0.15580
C4809       C  0.58076850  0.81869264  0.61669025     0.35050
C4810       C  0.57754624  0.82429522  0.64420070    -0.26950
C4811       C  0.55551023  0.81477595  0.65841120    -0.16190
C4812       C  0.53676269  0.79807602  0.64514357     0.36140
N4813       N  0.51342456  0.78907275  0.65902374    -0.90440
H4814       H  0.52522762  0.78002993  0.60734183     0.17250
H4815       H  0.59155069  0.83767645  0.65430550     0.17240
N4816       N  0.60353319  0.82920249  0.60276444    -0.89470
H4817       H  0.50138914  0.77770538  0.64608924     0.34620
H4818       H  0.50282138  0.80679666  0.66413457     0.39720
H4819       H  0.61459045  0.81205075  0.59690004     0.39340
H4820       H  0.61537803  0.84089689  0.61565283     0.34230
C4821       C  0.57768859  0.67132006  0.86286578    -0.27500
C4822       C  0.56368152  0.68897567  0.84584120    -0.15400
C4823       C  0.55345408  0.71372861  0.85667264     0.35050
C4824       C  0.55362425  0.71766968  0.88496614    -0.26950
C4825       C  0.56398033  0.69730845  0.90234642    -0.16190
C4826       C  0.57678471  0.67419461  0.89082837     0.36140
N4827       N  0.58725181  0.65246640  0.90747104    -0.90440
H4828       H  0.58624720  0.65270634  0.85453423     0.17250
H4829       H  0.54472974  0.73603858  0.89345360     0.17240
N4830       N  0.54103346  0.73345641  0.83932993    -0.89470
H4831       H  0.59590119  0.63698802  0.89579809     0.34620
H4832       H  0.57153173  0.64282521  0.91742698     0.39720
H4833       H  0.55544888  0.74195829  0.82670879     0.39340
H4834       H  0.53345192  0.74984402  0.85057669     0.34230
C4835       C  0.58072128  0.67982515  0.64727754    -0.27500
C4836       C  0.55906321  0.68911974  0.66182127    -0.15580
C4837       C  0.54077955  0.70624001  0.64886326     0.35050
C4838       C  0.54311881  0.71153381  0.62106324    -0.26950
C4839       C  0.56338325  0.69989104  0.60591986    -0.16190
C4840       C  0.58347372  0.68555026  0.61965373     0.36140
N4841       N  0.60631195  0.67621014  0.60554791    -0.90440
H4842       H  0.59476963  0.66659411  0.65720208     0.17250
H4843       H  0.52815874  0.72338483  0.61094770     0.17240
N4844       N  0.51874643  0.71644915  0.66350179    -0.89470
H4845       H  0.61877906  0.66558785  0.61853549     0.34620
H4846       H  0.61661977  0.69393784  0.59908210     0.39720
H4847       H  0.50682284  0.69933236  0.66837175     0.39340
H4848       H  0.50788730  0.72926216  0.65095141     0.34230
loop_ 
_geom_bond_atom_site_label_1 
_geom_bond_atom_site_label_2 
_geom_bond_distance 
_geom_bond_site_symmetry_2 
_ccdc_geom_bond_type 
N1            N2   1.335       .  A
N1            N7   1.320       .  A
N1         Mn636   2.255       .  S
N2            C9   1.366       .  A
N3            N5   1.319       .  A
N3            N4   1.308       .  A
N3         Mn625   2.162       .  S
N4           C10   1.337       .  A
N5            N6   1.329       .  A
N5          Mn30   2.230       .  S
N6           C10   1.360       .  A
N7            N8   1.304       .  A
N7          Mn19   2.152       .  S
N8            C9   1.334       .  A
C9          C538   1.484       .  S
C10         C513   1.464       .  S
N11          N17   1.311       .  A
N11          N12   1.331       .  A
N11        Mn647   2.223       .  S
N12          C20   1.358       .  A
N13          N14   1.317       .  A
N13          N15   1.310       .  A
N13         Mn19   2.165       .  S
N14          C21   1.345       .  A
N15          N16   1.327       .  A
N15         Mn41   2.217       .  S
N16          C21   1.358       .  A
N17          N18   1.315       .  A
N17        Mn625   2.167       .  S
N18          C20   1.345       .  A
Mn19        N609   2.162   1_554  S
Mn19        N623   2.167   1_554  S
Mn19        Cl43   2.446       .  S
C20         C583   1.497       .  S
C21         C597   1.493       .  S
N22          N23   1.333       .  A
N22          N28   1.319       .  A
N22         Mn30   2.246       .  S
N23          C31   1.364       .  A
N24          N26   1.323       .  A
N24          N25   1.311       .  A
N24        Mn648   2.180       .  S
N25          C32   1.339       .  A
N26          N27   1.330       .  A
N26        Mn636   2.234       .  S
N27          C32   1.360       .  A
N28          N29   1.303       .  A
N28         Mn42   2.147       .  S
N29          C31   1.333       .  A
Mn30        N607   2.255       .  S
Mn30        N632   2.234       .  S
Mn30       Cl649   2.612       .  S
C31         C496   1.478       .  S
C32         C524   1.478       .  S
N33          N34   1.325       .  A
N33          N39   1.312       .  A
N33         Mn41   2.205       .  S
N34          C44   1.355       .  A
N35          N36   1.322       .  A
N35          N37   1.310       .  A
N35         Mn42   2.184       .  S
N36          C45   1.349       .  A
N37          N38   1.323       .  A
N37        Mn647   2.194       .  S
N38          C45   1.352       .  A
N39          N40   1.318       .  A
N39        Mn648   2.185       .  S
N40          C44   1.349       .  A
Mn41        N617   2.223   1_554  S
Mn41        N643   2.195   1_554  S
Mn41        Cl43   2.602       .  S
Mn42        N630   2.180       .  S
Mn42        N645   2.185       .  S
Mn42       Cl649   2.437       .  S
Cl43       Mn636   2.612       .  S
Cl43       Mn648   2.437       .  S
C44         C566   1.491       .  S
C45         C552   1.480       .  S
N46          N47   1.330       .  A
N46          N52   1.311       .  A
N46         Mn75   2.222       .  S
N47          C54   1.361       .  A
N48          N50   1.311       .  A
N48          N49   1.319       .  A
N48        Mn670   2.171       .  S
N49          C55   1.345       .  A
N50          N51   1.326       .  A
N50        Mn681   2.211       .  S
N51          C55   1.354       .  A
N52          N53   1.316       .  A
N52         Mn64   2.178       .  S
N53          C54   1.347       .  A
C54         C485   1.500       .  S
C55         C468   1.484       .  S
N56          N62   1.320       .  A
N56          N57   1.331       .  A
N56        Mn692   2.246       .  S
N57          C65   1.363       .  A
N58          N59   1.307       .  A
N58          N60   1.321       .  A
N58         Mn64   2.156       .  S
N59          C66   1.334       .  A
N60          N61   1.331       .  A
N60         Mn86   2.243   1_554  S
N61          C66   1.362       .  A
N62          N63   1.305       .  A
N62        Mn670   2.154       .  S
N63          C65   1.335       .  A
Mn64        N654   2.171   1_554  S
Mn64        N668   2.154   1_554  S
Mn64        Cl88   2.442       .  S
C65         C429   1.471       .  S
C66         C401   1.464       .  S
N67          N68   1.333       .  A
N67          N73   1.310       .  A
N67        Mn681   2.237       .  S
N68          C76   1.361       .  A
N69          N71   1.311       .  A
N69          N70   1.313       .  A
N69         Mn87   2.151       .  S
N70          C77   1.343       .  A
N71          N72   1.329       .  A
N71         Mn75   2.222       .  S
N72          C77   1.359       .  A
N73          N74   1.314       .  A
N73        Mn693   2.156       .  S
N74          C76   1.341       .  A
Mn75        N656   2.211   1_554  S
Mn75        N673   2.237   1_554  S
Mn75        Cl88   2.597       .  S
C76         C443   1.503       .  S
C77         C454   1.480       .  S
N78          N79   1.332       .  A
N78          N84   1.319       .  A
N78         Mn86   2.244   1_554  S
N79          C89   1.364       .  A
N80          N81   1.303       .  A
N80          N82   1.318       .  A
N80        Mn693   2.146       .  S
N81          C90   1.333       .  A
N82          N83   1.333       .  A
N82        Mn692   2.249       .  S
N83          C90   1.367       .  A
N84          N85   1.309       .  A
N84         Mn87   2.163       .  S
N85          C89   1.336       .  A
Mn86        N662   2.246       .  S
Mn86        N688   2.249       .  S
Mn86        Cl88   2.615   1_556  S
Mn87        N679   2.156   1_554  S
Mn87        N686   2.146   1_554  S
Mn87        Cl88   2.444       .  S
C89         C384   1.474       .  S
C90         C412   1.484       .  S
N91          N92   1.330       .  A
N91          N97   1.320       .  A
N91        Mn120   2.240       .  S
N92          C99   1.361       .  A
N93          N95   1.319       .  A
N93          N94   1.305       .  A
N93        Mn109   2.151       .  S
N94         C100   1.334       .  A
N95          N96   1.333       .  A
N95        Mn120   2.248       .  S
N96         C100   1.365       .  A
N97          N98   1.308       .  A
N97        Mn109   2.157       .  S
N98          C99   1.335       .  A
C99         C541   1.465       .  S
C100        C398   1.477       .  S
N101        N107   1.311       .  A
N101        N102   1.323       .  A
N101      Mn1343   2.215       .  S
N102        C110   1.356       .  A
N103        N104   1.323       .  A
N103        N105   1.312       .  A
N103       Mn109   2.190       .  S
N104        C111   1.350       .  A
N105        N106   1.325       .  A
N105      Mn1343   2.217       .  S
N106        C111   1.355       .  A
N107        N108   1.322       .  A
N107       Mn109   2.179       .  S
N108        C110   1.347       .  A
Mn109     Cl1345   2.456       .  S
C110        C359   1.483       .  S
C111        C370   1.484       .  S
N112        N113   1.331       .  A
N112        N118   1.321       .  A
N112      Mn1332   2.251       .  S
N113        C121   1.363       .  A
N114        N116   1.322       .  A
N114        N115   1.311       .  A
N114       Mn132   2.174       .  S
N115        C122   1.339       .  A
N116        N117   1.330       .  A
N116      Mn1332   2.240       .  S
N117        C122   1.360       .  A
N118        N119   1.310       .  A
N118       Mn132   2.166       .  S
N119        C121   1.338       .  A
Mn120      N1324   2.251   1_545  S
Mn120      N1328   2.240   1_545  S
Mn120     Cl1345   2.619       .  S
C121        C387   1.477       .  S
C122        C527   1.482       .  S
N123        N124   1.321       .  A
N123        N129   1.313       .  A
N123       Mn131   2.204       .  S
N124        C134   1.353       .  A
N125        N126   1.322       .  A
N125        N127   1.312       .  A
N125       Mn132   2.195       .  S
N126        C135   1.352       .  A
N127        N128   1.324       .  A
N127       Mn131   2.215       .  S
N128        C135   1.357       .  A
N129        N130   1.323       .  A
N129       Mn132   2.195       .  S
N130        C134   1.352       .  A
Mn131      N1313   2.215       .  S
Mn131      N1317   2.217       .  S
Mn131      Cl133   2.590       .  S
Mn132      Cl133   2.466       .  S
Cl133     Mn1321   2.456       .  S
Cl133     Mn1332   2.619       .  S
C134        C342   1.495       .  S
C135        C328   1.502       .  S
N136        N137   1.325       .  A
N136        N142   1.312       .  A
N136       Mn165   2.226   1_545  S
N137        C144   1.358       .  A
N138        N140   1.314       .  A
N138        N139   1.320       .  A
N138       Mn154   2.172       .  S
N139        C145   1.344       .  A
N140        N141   1.326       .  A
N140       Mn165   2.227   1_545  S
N141        C145   1.357       .  A
N142        N143   1.322       .  A
N142       Mn154   2.182       .  S
N143        C144   1.350       .  A
C144        C314   1.494       .  S
C145        C303   1.480       .  S
N146        N152   1.318       .  A
N146        N147   1.329       .  A
N146       Mn176   2.227       .  S
N147        C155   1.359       .  A
N148        N149   1.306       .  A
N148        N150   1.320       .  A
N148       Mn154   2.156       .  S
N149        C156   1.337       .  A
N150        N151   1.330       .  A
N150       Mn176   2.238       .  S
N151        C156   1.362       .  A
N152        N153   1.308       .  A
N152       Mn154   2.161       .  S
N153        C155   1.337       .  A
Mn154      Cl178   2.476       .  S
C155        C426   1.462       .  S
C156        C510   1.475       .  S
N157        N158   1.326       .  A
N157        N163   1.311       .  A
N157      Mn1377   2.215       .  S
N158        C166   1.359       .  A
N159        N161   1.313       .  A
N159        N160   1.319       .  A
N159       Mn177   2.179       .  S
N160        C167   1.348       .  A
N161        N162   1.325       .  A
N161      Mn1377   2.227       .  S
N162        C167   1.359       .  A
N163        N164   1.320       .  A
N163       Mn177   2.189       .  S
N164        C166   1.351       .  A
Mn165      N1369   2.215       .  S
Mn165      N1373   2.227       .  S
Mn165      Cl178   2.576   1_565  S
C166        C275   1.498       .  S
C167        C289   1.489       .  S
N168        N169   1.329       .  A
N168        N174   1.320       .  A
N168      Mn1388   2.224       .  S
N169        C179   1.357       .  A
N170        N171   1.307       .  A
N170        N172   1.320       .  A
N170       Mn177   2.149       .  S
N171        C180   1.334       .  A
N172        N173   1.329       .  A
N172      Mn1388   2.236       .  S
N173        C180   1.359       .  A
N174        N175   1.310       .  A
N174       Mn177   2.173       .  S
N175        C179   1.338       .  A
Mn176      N1380   2.224   1_545  S
Mn176      N1384   2.236   1_545  S
Mn176      Cl178   2.611       .  S
Mn177     Cl1390   2.470       .  S
Cl178     Mn1389   2.470   1_545  S
C179        C499   1.463       .  S
C180        C415   1.458       .  S
N181        N182   1.329       .  A
N181        N187   1.321       .  A
N181      Mn2634   2.243   1_455  S
N182        C189   1.361       .  A
N183        N185   1.320       .  A
N183        N184   1.310       .  A
N183      Mn2623   2.169       .  S
N184        C190   1.340       .  A
N185        N186   1.331       .  A
N185       Mn210   2.255       .  S
N186        C190   1.365       .  A
N187        N188   1.313       .  A
N187       Mn199   2.188   1_455  S
N188        C189   1.342       .  A
C189        C594   1.477       .  S
C190        C482   1.483       .  S
N191        N197   1.313       .  A
N191        N192   1.325       .  A
N191      Mn2645   2.212       .  S
N192        C200   1.355       .  A
N193        N194   1.322       .  A
N193        N195   1.313       .  A
N193       Mn199   2.190   1_455  S
N194        C201   1.350       .  A
N195        N196   1.326       .  A
N195       Mn221   2.228   1_455  S
N196        C201   1.357       .  A
N197        N198   1.322       .  A
N197      Mn2623   2.199       .  S
N198        C200   1.350       .  A
Mn199      N2607   2.169       .  S
Mn199      N2621   2.199       .  S
Mn199      Cl223   2.481       .  S
C200        C356   1.484       .  S
C201        C373   1.485       .  S
N202        N203   1.329       .  A
N202        N208   1.320       .  A
N202       Mn210   2.244       .  S
N203        C211   1.362       .  A
N204        N206   1.318       .  A
N204        N205   1.308       .  A
N204       Mn222   2.176   1_455  S
N205        C212   1.341       .  A
N206        N207   1.335       .  A
N206      Mn2634   2.255   1_455  S
N207        C212   1.366       .  A
N208        N209   1.312       .  A
N208      Mn2646   2.184       .  S
N209        C211   1.342       .  A
Mn210      N2605   2.243       .  S
Mn210      N2630   2.255       .  S
Mn210     Cl2647   2.607       .  S
C211        C471   1.476       .  S
C212        C580   1.490       .  S
N213        N214   1.323       .  A
N213        N219   1.312       .  A
N213       Mn221   2.206   1_455  S
N214        C224   1.354       .  A
N215        N216   1.321       .  A
N215        N217   1.312       .  A
N215      Mn2646   2.186       .  S
N216        C225   1.349       .  A
N217        N218   1.325       .  A
N217      Mn2645   2.219       .  S
N218        C225   1.356       .  A
N219        N220   1.322       .  A
N219       Mn222   2.195   1_455  S
N220        C224   1.351       .  A
Mn221      N2615   2.212       .  S
Mn221      N2641   2.219       .  S
Mn221      Cl223   2.593       .  S
Mn222      N2632   2.184       .  S
Mn222      N2639   2.186       .  S
Mn222      Cl223   2.473       .  S
Cl223     Mn2634   2.607       .  S
C224        C317   1.490       .  S
C225        C300   1.483       .  S
N226        N227   1.324       .  A
N226        N232   1.311       .  A
N226      Mn2679   2.225       .  S
N227        C234   1.361       .  A
N228        N230   1.311       .  A
N228        N229   1.321       .  A
N228       Mn244   2.187       .  S
N229        C235   1.350       .  A
N230        N231   1.325       .  A
N230       Mn255   2.216       .  S
N231        C235   1.358       .  A
N232        N233   1.319       .  A
N232      Mn2668   2.179   1_455  S
N233        C234   1.350       .  A
C234        C345   1.494       .  S
C235        C331   1.496       .  S
N236        N242   1.315       .  A
N236        N237   1.336       .  A
N236       Mn266   2.264       .  S
N237        C245   1.372       .  A
N238        N239   1.313       .  A
N238        N240   1.320       .  A
N238      Mn2668   2.184   1_455  S
N239        C246   1.342       .  A
N240        N241   1.328       .  A
N240      Mn2690   2.233   1_455  S
N241        C246   1.359       .  A
N242        N243   1.302       .  A
N242       Mn244   2.149       .  S
N243        C245   1.336       .  A
Mn244      N2656   2.179       .  S
Mn244      N2662   2.184       .  S
Mn244      Cl268   2.463       .  S
C245        C457   1.497       .  S
C246        C569   1.473       .  S
N247        N248   1.321       .  A
N247        N253   1.313       .  A
N247       Mn255   2.208       .  S
N248        C256   1.354       .  A
N249        N251   1.313       .  A
N249        N250   1.323       .  A
N249      Mn2691   2.193   1_455  S
N250        C257   1.349       .  A
N251        N252   1.323       .  A
N251      Mn2679   2.214       .  S
N252        C257   1.358       .  A
N253        N254   1.323       .  A
N253       Mn267   2.190       .  S
N254        C256   1.353       .  A
Mn255      N2650   2.225       .  S
Mn255      N2675   2.214       .  S
Mn255      Cl268   2.586       .  S
C256        C272   1.495       .  S
C257        C286   1.488       .  S
N258        N259   1.331       .  A
N258        N264   1.321       .  A
N258      Mn2690   2.256   1_455  S
N259        C269   1.364       .  A
N260        N261   1.312       .  A
N260        N262   1.320       .  A
N260       Mn267   2.189       .  S
N261        C270   1.342       .  A
N262        N263   1.332       .  A
N262       Mn266   2.232       .  S
N263        C270   1.360       .  A
N264        N265   1.310       .  A
N264      Mn2691   2.174   1_455  S
N265        C269   1.339       .  A
Mn266      N2664   2.233       .  S
Mn266      N2682   2.256       .  S
Mn266      Cl268   2.625       .  S
Mn267      N2673   2.193       .  S
Mn267      N2688   2.174       .  S
Mn267      Cl268   2.469       .  S
C269        C555   1.476       .  S
C270        C440   1.480       .  S
C271        C272   1.406       .  A
C271        C276   1.410       .  A
C271        H278   1.083       .  S
C272        C273   1.413       .  A
C273        C274   1.410       .  A
C273        N280   1.437       .  S
C274        C275   1.406       .  A
C274        H279   1.082       .  S
C275        C276   1.417       .  A
C276        N277   1.438       .  S
N277        H281   1.046       .  S
N277        H282   1.045       .  S
N280        H283   1.043       .  S
N280        H284   1.043       .  S
C285        C286   1.399       .  A
C285        C290   1.414       .  A
C285        H292   1.084       .  S
C286        C287   1.402       .  A
C287        C288   1.404       .  A
C287        N294   1.419       .  S
C288        C289   1.397       .  A
C288        H293   1.084       .  S
C289        C290   1.419       .  A
C290        N291   1.433       .  S
N291        H295   1.045       .  S
N291        H296   1.045       .  S
N294        H297   1.046       .  S
N294        H298   1.037       .  S
C299        C300   1.404       .  A
C299        C304   1.411       .  A
C299        H306   1.083       .  S
C300        C301   1.421       .  A
C301        C302   1.404       .  A
C301        N308   1.439       .  S
C302        C303   1.397       .  A
C302        H307   1.082       .  S
C303        C304   1.410       .  A
C304        N305   1.438       .  S
N305        H309   1.046   1_545  S
N305        H310   1.041       .  S
N308        H311   1.042       .  S
N308        H312   1.045       .  S
C313        C314   1.404       .  A
C313        C318   1.406       .  A
C313        H320   1.084       .  S
C314        C315   1.414       .  A
C315        C316   1.399       .  A
C315        N322   1.423       .  S
C316        C317   1.400       .  A
C316        H321   1.084       .  S
C317        C318   1.421       .  A
C318        N319   1.432       .  S
N319        H323   1.044       .  S
N319        H324   1.045       .  S
N322        H325   1.045   1_545  S
N322        H326   1.042   1_545  S
C327        C328   1.406       .  A
C327        C332   1.409       .  A
C327        H334   1.084       .  S
C328        C329   1.417       .  A
C329        C330   1.410       .  A
C329        N336   1.431       .  S
C330        C331   1.401       .  A
C330        H335   1.082       .  S
C331        C332   1.416       .  A
C332        N333   1.432       .  S
N333        H337   1.046       .  S
N333        H338   1.046       .  S
N336        H339   1.036       .  S
N336        H340   1.043       .  S
C341        C342   1.406       .  A
C341        C346   1.411       .  A
C341        H348   1.083       .  S
C342        C343   1.415       .  A
C343        C344   1.408       .  A
C343        N350   1.436       .  S
C344        C345   1.400       .  A
C344        H349   1.084       .  S
C345        C346   1.418       .  A
C346        N347   1.438       .  S
N347        H351   1.046       .  S
N347        H352   1.046       .  S
N350        H353   1.044       .  S
N350        H354   1.046       .  S
C355        C356   1.405       .  A
C355        C360   1.410       .  A
C355        H362   1.082       .  S
C356        C357   1.416       .  A
C357        C358   1.408       .  A
C357        N364   1.438       .  S
C358        C359   1.406       .  A
C358        H363   1.084       .  S
C359        C360   1.402       .  A
C360        N361   1.434       .  S
N361        H365   1.044       .  S
N361        H366   1.045       .  S
N364        H367   1.044       .  S
N364        H368   1.046       .  S
C369        C370   1.401       .  A
C369        C374   1.411       .  A
C369        H376   1.084       .  S
C370        C371   1.414       .  A
C371        C372   1.413       .  A
C371        N378   1.438       .  S
C372        C373   1.402       .  A
C372        H377   1.084       .  S
C373        C374   1.412       .  A
C374        N375   1.436       .  S
N375        H379   1.045       .  S
N375        H380   1.043       .  S
N378        H381   1.045       .  S
N378        H382   1.046       .  S
C383        C384   1.401       .  A
C383        C388   1.395       .  A
C383        H390   1.085       .  S
C384        C385   1.421       .  A
C385        C386   1.411       .  A
C385        N392   1.438       .  S
C386        C387   1.406       .  A
C386        H391   1.084       .  S
C387        C388   1.416       .  A
C388        N389   1.439       .  S
N389        H393   1.046       .  S
N389        H394   1.044       .  S
N392        H395   1.042       .  S
N392        H396   1.046       .  S
C397        C398   1.404       .  A
C397        C402   1.392       .  A
C397        H404   1.085       .  S
C398        C399   1.412       .  A
C399        C400   1.415       .  A
C399        N406   1.436       .  S
C400        C401   1.409       .  A
C400        H405   1.084       .  S
C401        C402   1.410       .  A
C402        N403   1.440       .  S
N403        H407   1.046       .  S
N403        H408   1.044       .  S
N406        H409   1.045       .  S
N406        H410   1.046       .  S
C411        C412   1.413       .  A
C411        C416   1.395       .  A
C411        H418   1.082       .  S
C412        C413   1.407       .  A
C413        C414   1.412       .  A
C413        N420   1.435       .  S
C414        C415   1.410       .  A
C414        H419   1.084       .  S
C415        C416   1.399       .  A
C416        N417   1.440       .  S
N417        H421   1.046       .  S
N417        H422   1.046       .  S
N420        H423   1.045       .  S
N420        H424   1.043       .  S
C425        C426   1.407       .  A
C425        C430   1.412       .  A
C425        H432   1.084       .  S
C426        C427   1.411       .  A
C427        C428   1.393       .  A
C427        N434   1.440       .  S
C428        C429   1.403       .  A
C428        H433   1.085       .  S
C429        C430   1.411       .  A
C430        N431   1.437       .  S
N431        H435   1.046       .  S
N431        H436   1.045       .  S
N434        H437   1.044       .  S
N434        H438   1.046       .  S
C439        C440   1.396       .  A
C439        C444   1.401       .  A
C439        H446   1.085       .  S
C440        C441   1.413       .  A
C441        C442   1.418       .  A
C441        N448   1.436       .  S
C442        C443   1.410       .  A
C442        H447   1.083       .  S
C443        C444   1.424       .  A
C444        N445   1.438       .  S
N445        H449   1.046       .  S
N445        H450   1.046       .  S
N448        H451   1.045       .  S
N448        H452   1.046       .  S
C453        C454   1.410       .  A
C453        C458   1.416       .  A
C453        H460   1.079       .  S
C454        C455   1.413       .  A
C455        C456   1.391       .  A
C455        N462   1.443       .  S
C456        C457   1.410       .  A
C456        H461   1.084       .  S
C457        C458   1.410       .  A
C458        N459   1.433       .  S
N459        H463   1.046       .  S
N459        H464   1.043       .  S
N462        H465   1.042       .  S
N462        H466   1.046       .  S
C467        C468   1.396       .  A
C467        C472   1.405       .  A
C467        H474   1.084       .  S
C468        C469   1.423       .  A
C469        C470   1.405       .  A
C469        N476   1.432       .  S
C470        C471   1.398       .  A
C470        H475   1.084       .  S
C471        C472   1.412       .  A
C472        N473   1.433       .  S
N473        H477   1.043       .  S
N473        H478   1.044       .  S
N476        H479   1.046       .  S
N476        H480   1.043       .  S
C481        C482   1.401       .  A
C481        C486   1.403       .  A
C481        H488   1.084       .  S
C482        C483   1.406       .  A
C483        C484   1.417       .  A
C483        N490   1.434       .  S
C484        C485   1.410       .  A
C484        H489   1.082       .  S
C485        C486   1.420       .  A
C486        N487   1.439       .  S
N487        H491   1.046       .  S
N487        H492   1.046       .  S
N490        H493   1.044       .  S
N490        H494   1.044       .  S
C495        C496   1.406       .  A
C495        C500   1.392       .  A
C495        H502   1.084       .  S
C496        C497   1.414       .  A
C497        C498   1.416       .  A
C497        N504   1.437       .  S
C498        C499   1.408       .  A
C498        H503   1.083       .  S
C499        C500   1.397       .  A
C500        N501   1.435       .  S
N501        H505   1.046       .  S
N501        H506   1.046       .  S
N504        H507   1.046       .  S
N504        H508   1.045       .  S
C509        C510   1.404       .  A
C509        C514   1.391       .  A
C509        H516   1.086       .  S
C510        C511   1.423       .  A
C511        C512   1.409       .  A
C511        N518   1.438       .  S
C512        C513   1.405       .  A
C512        H517   1.083       .  S
C513        C514   1.409       .  A
C514        N515   1.440       .  S
N515        H519   1.046       .  S
N515        H520   1.044       .  S
N518        H521   1.040       .  S
N518       H1128   1.046       .  S
H522       N1124   1.046       .  S
C523        C524   1.412       .  A
C523        C528   1.406       .  A
C523        H530   1.084       .  S
C524        C525   1.402       .  A
C525        C526   1.405       .  A
C525        N532   1.437       .  S
C526        C527   1.413       .  A
C526        H531   1.084       .  S
C527        C528   1.403       .  A
C528        N529   1.437       .  S
N529        H534   1.045       .  S
N529       H1139   1.046       .  S
N532        H535   1.046       .  S
N532        H536   1.046       .  S
H533       N1135   1.046       .  S
C537        C538   1.408       .  A
C537        C542   1.395       .  A
C537        H544   1.082       .  S
C538        C539   1.412       .  A
C539        C540   1.416       .  A
C539        N546   1.437       .  S
C540        C541   1.410       .  A
C540        H545   1.084       .  S
C541        C542   1.403       .  A
C542        N543   1.441       .  S
N543        H547   1.046       .  S
N543        H548   1.045       .  S
N546        H549   1.045       .  S
N546        H550   1.046       .  S
C551        C552   1.408       .  A
C551        C556   1.413       .  A
C551        H558   1.084       .  S
C552        C553   1.403       .  A
C553        C554   1.404       .  A
C553        N560   1.436       .  S
C554        C555   1.407       .  A
C554        H559   1.084       .  S
C555        C556   1.407       .  A
C556        N557   1.436       .  S
N557        H561   1.046       .  S
N557        H562   1.046       .  S
N560        H563   1.045       .  S
N560        H564   1.044   1_455  S
C565        C566   1.406       .  A
C565        C570   1.409       .  A
C565        H572   1.083       .  S
C566        C567   1.419       .  A
C567        C568   1.405       .  A
C567        N574   1.438       .  S
C568        C569   1.400       .  A
C568        H573   1.084       .  S
C569        C570   1.412       .  A
C570        N571   1.438       .  S
N571        H575   1.045       .  S
N571        H576   1.046       .  S
N574        H577   1.046       .  S
N574        H578   1.046       .  S
C579        C580   1.401       .  A
C579        C584   1.400       .  A
C579        H586   1.082       .  S
C580        C581   1.411       .  A
C581        C582   1.421       .  A
C581        N588   1.435       .  S
C582        C583   1.412       .  A
C582        H587   1.083       .  S
C583        C584   1.416       .  A
C584        N585   1.439       .  S
N585        H589   1.046       .  S
N585        H590   1.046       .  S
N588        H591   1.045       .  S
N588        H592   1.044       .  S
C593        C594   1.398       .  A
C593        C598   1.407       .  A
C593        H600   1.084       .  S
C594        C595   1.409       .  A
C595        C596   1.410       .  A
C595        N602   1.431       .  S
C596        C597   1.401       .  A
C596        H601   1.084       .  S
C597        C598   1.420       .  A
C598        N599   1.437       .  S
N599        H603   1.046       .  S
N599        H604   1.046       .  S
N602        H605   1.046       .  S
N602        H606   1.042       .  S
N607        N608   1.335       .  A
N607        N613   1.320       .  A
N608        C615   1.366       .  A
N609        N611   1.319       .  A
N609        N610   1.308       .  A
N610        C616   1.337       .  A
N611        N612   1.329       .  A
N611       Mn636   2.230   1_556  S
N612        C616   1.360       .  A
N613        N614   1.304       .  A
N613       Mn625   2.152       .  S
N614        C615   1.334       .  A
C615       C1144   1.484       .  S
C616       C1119   1.464       .  S
N617        N623   1.311       .  A
N617        N618   1.331       .  A
N618        C626   1.358       .  A
N619        N620   1.317       .  A
N619        N621   1.310       .  A
N619       Mn625   2.165       .  S
N620        C627   1.345       .  A
N621        N622   1.327       .  A
N621       Mn647   2.217       .  S
N622        C627   1.358       .  A
N623        N624   1.315       .  A
N624        C626   1.345       .  A
Mn625      Cl649   2.446       .  S
C626       C1189   1.497       .  S
C627       C1203   1.493       .  S
N628        N629   1.333       .  A
N628        N634   1.319       .  A
N628       Mn636   2.246   1_556  S
N629        C637   1.364       .  A
N630        N632   1.323       .  A
N630        N631   1.311       .  A
N631        C638   1.339       .  A
N632        N633   1.330       .  A
N633        C638   1.360       .  A
N634        N635   1.303       .  A
N634       Mn648   2.147   1_556  S
N635        C637   1.333       .  A
C637       C1102   1.478       .  S
C638       C1130   1.478       .  S
N639        N640   1.325       .  A
N639        N645   1.312       .  A
N639       Mn647   2.205       .  S
N640        C650   1.355       .  A
N641        N642   1.322       .  A
N641        N643   1.310       .  A
N641       Mn648   2.184   1_556  S
N642        C651   1.349       .  A
N643        N644   1.323       .  A
N644        C651   1.352       .  A
N645        N646   1.319       .  A
N646        C650   1.349       .  A
Mn647      Cl649   2.602       .  S
C650       C1172   1.491       .  S
C651       C1158   1.480       .  S
N652        N653   1.330       .  A
N652        N658   1.311       .  A
N652       Mn681   2.222       .  S
N653        C660   1.361       .  A
N654        N656   1.311       .  A
N654        N655   1.319       .  A
N655        C661   1.345       .  A
N656        N657   1.326       .  A
N657        C661   1.354       .  A
N658        N659   1.316       .  A
N658       Mn670   2.178       .  S
N659        C660   1.347       .  A
C660       C1091   1.500       .  S
C661       C1074   1.484       .  S
N662        N668   1.320       .  A
N662        N663   1.331       .  A
N663        C671   1.363       .  A
N664        N665   1.307       .  A
N664        N666   1.321       .  A
N664       Mn670   2.156       .  S
N665        C672   1.334       .  A
N666        N667   1.331       .  A
N666       Mn692   2.242       .  S
N667        C672   1.362       .  A
N668        N669   1.306       .  A
N669        C671   1.335       .  A
Mn670      Cl694   2.442       .  S
C671       C1035   1.471       .  S
C672       C1007   1.464       .  S
N673        N674   1.333       .  A
N673        N679   1.310       .  A
N674        C682   1.361       .  A
N675        N677   1.311       .  A
N675        N676   1.313       .  A
N675       Mn693   2.151       .  S
N676        C683   1.343       .  A
N677        N678   1.329       .  A
N677       Mn681   2.222       .  S
N678        C683   1.359       .  A
N679        N680   1.314       .  A
N680        C682   1.341       .  A
Mn681      Cl694   2.597       .  S
C682       C1049   1.503       .  S
C683       C1060   1.480       .  S
N684        N685   1.332       .  A
N684        N690   1.319       .  A
N684       Mn692   2.244       .  S
N685        C695   1.364       .  A
N686        N687   1.303       .  A
N686        N688   1.318       .  A
N687        C696   1.333       .  A
N688        N689   1.333       .  A
N689        C696   1.367       .  A
N690        N691   1.309       .  A
N690       Mn693   2.163       .  S
N691        C695   1.336       .  A
Mn692      Cl694   2.615       .  S
Mn693      Cl694   2.444       .  S
C695        C990   1.474       .  S
C696       C1018   1.484       .  S
N697        N698   1.330       .  A
N697        N703   1.320       .  A
N697       Mn726   2.240       .  S
N698        C705   1.360       .  A
N699        N701   1.319       .  A
N699        N700   1.305       .  A
N699       Mn715   2.151       .  S
N700        C706   1.334       .  A
N701        N702   1.333       .  A
N701       Mn726   2.248       .  S
N702        C706   1.365       .  A
N703        N704   1.308       .  A
N703       Mn715   2.157       .  S
N704        C705   1.335       .  A
C705       C1147   1.465       .  S
C706       C1004   1.477       .  S
N707        N713   1.311       .  A
N707        N708   1.323       .  A
N707      Mn1949   2.215       .  S
N708        C716   1.356       .  A
N709        N710   1.323       .  A
N709        N711   1.312       .  A
N709       Mn715   2.190       .  S
N710        C717   1.350       .  A
N711        N712   1.325       .  A
N711      Mn1949   2.217       .  S
N712        C717   1.355       .  A
N713        N714   1.322       .  A
N713       Mn715   2.179       .  S
N714        C716   1.347       .  A
Mn715     Cl1951   2.456       .  S
C716        C965   1.483       .  S
C717        C976   1.484       .  S
N718        N719   1.331       .  A
N718        N724   1.321       .  A
N718      Mn1938   2.251       .  S
N719        C727   1.363       .  A
N720        N722   1.322       .  A
N720        N721   1.311       .  A
N720       Mn738   2.174       .  S
N721        C728   1.339       .  A
N722        N723   1.330       .  A
N722      Mn1938   2.240       .  S
N723        C728   1.360       .  A
N724        N725   1.310       .  A
N724       Mn738   2.166       .  S
N725        C727   1.338       .  A
Mn726      N1930   2.251   1_545  S
Mn726      N1934   2.240   1_545  S
Mn726     Cl1951   2.619       .  S
C727        C993   1.477       .  S
C728       C1133   1.482       .  S
N729        N730   1.321       .  A
N729        N735   1.313       .  A
N729       Mn737   2.204       .  S
N730        C740   1.353       .  A
N731        N732   1.322       .  A
N731        N733   1.312       .  A
N731       Mn738   2.195       .  S
N732        C741   1.352       .  A
N733        N734   1.324       .  A
N733       Mn737   2.215       .  S
N734        C741   1.357       .  A
N735        N736   1.323       .  A
N735       Mn738   2.195       .  S
N736        C740   1.352       .  A
Mn737      N1919   2.215       .  S
Mn737      N1923   2.217       .  S
Mn737      Cl739   2.590       .  S
Mn738      Cl739   2.466       .  S
Cl739     Mn1927   2.456       .  S
Cl739     Mn1938   2.619       .  S
C740        C948   1.495       .  S
C741        C934   1.502       .  S
N742        N743   1.325       .  A
N742        N748   1.312       .  A
N742       Mn771   2.225   1_545  S
N743        C750   1.359       .  A
N744        N746   1.313       .  A
N744        N745   1.320       .  A
N744       Mn760   2.171       .  S
N745        C751   1.344       .  A
N746        N747   1.326       .  A
N746       Mn771   2.227   1_545  S
N747        C751   1.357       .  A
N748        N749   1.322       .  A
N748       Mn760   2.181       .  S
N749        C750   1.350       .  A
C750        C920   1.494       .  S
C751        C909   1.480       .  S
N752        N758   1.319       .  A
N752        N753   1.328       .  A
N752       Mn782   2.227       .  S
N753        C761   1.359       .  A
N754        N755   1.306       .  A
N754        N756   1.320       .  A
N754       Mn760   2.157       .  S
N755        C762   1.337       .  A
N756        N757   1.330       .  A
N756       Mn782   2.239       .  S
N757        C762   1.362       .  A
N758        N759   1.308       .  A
N758       Mn760   2.162       .  S
N759        C761   1.337       .  A
Mn760      Cl784   2.476       .  S
C761       C1032   1.462       .  S
C762       C1116   1.475       .  S
N763        N764   1.326       .  A
N763        N769   1.311       .  A
N763      Mn1983   2.215       .  S
N764        C772   1.359       .  A
N765        N767   1.313       .  A
N765        N766   1.319       .  A
N765       Mn783   2.179       .  S
N766        C773   1.348       .  A
N767        N768   1.325       .  A
N767      Mn1983   2.227       .  S
N768        C773   1.359       .  A
N769        N770   1.320       .  A
N769       Mn783   2.189       .  S
N770        C772   1.351       .  A
Mn771      N1975   2.214       .  S
Mn771      N1979   2.226       .  S
Mn771      Cl784   2.585   1_565  S
C772        C881   1.498       .  S
C773        C895   1.489       .  S
N774        N775   1.329       .  A
N774        N780   1.320       .  A
N774      Mn1994   2.224       .  S
N775        C785   1.357       .  A
N776        N777   1.307       .  A
N776        N778   1.320       .  A
N776       Mn783   2.149       .  S
N777        C786   1.334       .  A
N778        N779   1.329       .  A
N778      Mn1994   2.236       .  S
N779        C786   1.359       .  A
N780        N781   1.310       .  A
N780       Mn783   2.173       .  S
N781        C785   1.338       .  A
Mn782      N1986   2.225   1_545  S
Mn782      N1990   2.236   1_545  S
Mn782      Cl784   2.601       .  S
Mn783     Cl1996   2.470       .  S
Cl784     Mn1995   2.470   1_545  S
C785       C1105   1.463       .  S
C786       C1021   1.458       .  S
N787        N788   1.329       .  A
N787        N793   1.321       .  A
N787      Mn3240   2.243   1_455  S
N788        C795   1.361       .  A
N789        N791   1.320       .  A
N789        N790   1.310       .  A
N789      Mn3229   2.169       .  S
N790        C796   1.340       .  A
N791        N792   1.331       .  A
N791       Mn816   2.255       .  S
N792        C796   1.365       .  A
N793        N794   1.313       .  A
N793       Mn805   2.188   1_455  S
N794        C795   1.342       .  A
C795       C1200   1.477       .  S
C796       C1088   1.483       .  S
N797        N803   1.313       .  A
N797        N798   1.325       .  A
N797      Mn3251   2.212       .  S
N798        C806   1.355       .  A
N799        N800   1.322       .  A
N799        N801   1.313       .  A
N799       Mn805   2.190   1_455  S
N800        C807   1.350       .  A
N801        N802   1.326       .  A
N801       Mn827   2.228   1_455  S
N802        C807   1.357       .  A
N803        N804   1.322       .  A
N803      Mn3229   2.199       .  S
N804        C806   1.350       .  A
Mn805      N3213   2.169       .  S
Mn805      N3227   2.199       .  S
Mn805      Cl829   2.481       .  S
C806        C962   1.484       .  S
C807        C979   1.485       .  S
N808        N809   1.329       .  A
N808        N814   1.320       .  A
N808       Mn816   2.244       .  S
N809        C817   1.362       .  A
N810        N812   1.318       .  A
N810        N811   1.308       .  A
N810       Mn828   2.176   1_455  S
N811        C818   1.341       .  A
N812        N813   1.335       .  A
N812      Mn3240   2.255   1_455  S
N813        C818   1.366       .  A
N814        N815   1.312       .  A
N814      Mn3252   2.184       .  S
N815        C817   1.342       .  A
Mn816      N3211   2.243       .  S
Mn816      N3236   2.255       .  S
Mn816     Cl3253   2.607       .  S
C817       C1077   1.476       .  S
C818       C1186   1.490       .  S
N819        N820   1.323       .  A
N819        N825   1.312       .  A
N819       Mn827   2.206   1_455  S
N820        C830   1.354       .  A
N821        N822   1.321       .  A
N821        N823   1.312       .  A
N821      Mn3252   2.186       .  S
N822        C831   1.349       .  A
N823        N824   1.325       .  A
N823      Mn3251   2.219       .  S
N824        C831   1.356       .  A
N825        N826   1.322       .  A
N825       Mn828   2.195   1_455  S
N826        C830   1.351       .  A
Mn827      N3221   2.212       .  S
Mn827      N3247   2.219       .  S
Mn827      Cl829   2.593       .  S
Mn828      N3238   2.184       .  S
Mn828      N3245   2.186       .  S
Mn828      Cl829   2.473       .  S
Cl829     Mn3240   2.607       .  S
C830        C923   1.490       .  S
C831        C906   1.483       .  S
N832        N833   1.324       .  A
N832        N838   1.311       .  A
N832      Mn3285   2.225       .  S
N833        C840   1.361       .  A
N834        N836   1.311       .  A
N834        N835   1.321       .  A
N834       Mn850   2.187       .  S
N835        C841   1.350       .  A
N836        N837   1.325       .  A
N836       Mn861   2.216       .  S
N837        C841   1.358       .  A
N838        N839   1.319       .  A
N838      Mn3274   2.179   1_455  S
N839        C840   1.350       .  A
C840        C951   1.494       .  S
C841        C937   1.496       .  S
N842        N848   1.315       .  A
N842        N843   1.336       .  A
N842       Mn872   2.264       .  S
N843        C851   1.372       .  A
N844        N845   1.313       .  A
N844        N846   1.320       .  A
N844      Mn3274   2.184   1_455  S
N845        C852   1.342       .  A
N846        N847   1.328       .  A
N846      Mn3296   2.233   1_455  S
N847        C852   1.360       .  A
N848        N849   1.302       .  A
N848       Mn850   2.149       .  S
N849        C851   1.336       .  A
Mn850      N3262   2.179       .  S
Mn850      N3268   2.184       .  S
Mn850      Cl874   2.463       .  S
C851       C1063   1.497       .  S
C852       C1175   1.473       .  S
N853        N854   1.321       .  A
N853        N859   1.313       .  A
N853       Mn861   2.208       .  S
N854        C862   1.354       .  A
N855        N857   1.313       .  A
N855        N856   1.323       .  A
N855      Mn3297   2.193   1_455  S
N856        C863   1.349       .  A
N857        N858   1.323       .  A
N857      Mn3285   2.214       .  S
N858        C863   1.358       .  A
N859        N860   1.323       .  A
N859       Mn873   2.190       .  S
N860        C862   1.353       .  A
Mn861      N3256   2.225       .  S
Mn861      N3281   2.214       .  S
Mn861      Cl874   2.586       .  S
C862        C878   1.495       .  S
C863        C892   1.488       .  S
N864        N865   1.331       .  A
N864        N870   1.321       .  A
N864      Mn3296   2.256   1_455  S
N865        C875   1.364       .  A
N866        N867   1.312       .  A
N866        N868   1.321       .  A
N866       Mn873   2.189       .  S
N867        C876   1.342       .  A
N868        N869   1.332       .  A
N868       Mn872   2.232       .  S
N869        C876   1.360       .  A
N870        N871   1.310       .  A
N870      Mn3297   2.174   1_455  S
N871        C875   1.339       .  A
Mn872      N3270   2.233       .  S
Mn872      N3288   2.256       .  S
Mn872      Cl874   2.625       .  S
Mn873      N3279   2.193       .  S
Mn873      N3294   2.174       .  S
Mn873      Cl874   2.469       .  S
C875       C1161   1.476       .  S
C876       C1046   1.480       .  S
C877        C878   1.406       .  A
C877        C882   1.410       .  A
C877        H884   1.083       .  S
C878        C879   1.413       .  A
C879        C880   1.410       .  A
C879        N886   1.437       .  S
C880        C881   1.406       .  A
C880        H885   1.082       .  S
C881        C882   1.417       .  A
C882        N883   1.438       .  S
N883        H887   1.046       .  S
N883        H888   1.045       .  S
N886        H889   1.043       .  S
N886        H890   1.043       .  S
C891        C892   1.399       .  A
C891        C896   1.414       .  A
C891        H898   1.084       .  S
C892        C893   1.402       .  A
C893        C894   1.404       .  A
C893        N900   1.419       .  S
C894        C895   1.397       .  A
C894        H899   1.084       .  S
C895        C896   1.419       .  A
C896        N897   1.433       .  S
N897        H901   1.045       .  S
N897        H902   1.045       .  S
N900        H903   1.046       .  S
N900        H904   1.037       .  S
C905        C906   1.404       .  A
C905        C910   1.411       .  A
C905        H912   1.083       .  S
C906        C907   1.421       .  A
C907        C908   1.404       .  A
C907        N914   1.439       .  S
C908        C909   1.397       .  A
C908        H913   1.082       .  S
C909        C910   1.410       .  A
C910        N911   1.438       .  S
N911        H915   1.046   1_545  S
N911        H916   1.041       .  S
N914        H917   1.042       .  S
N914        H918   1.045       .  S
C919        C920   1.404       .  A
C919        C924   1.406       .  A
C919        H926   1.084       .  S
C920        C921   1.414       .  A
C921        C922   1.399       .  A
C921        N928   1.423       .  S
C922        C923   1.400       .  A
C922        H927   1.084       .  S
C923        C924   1.421       .  A
C924        N925   1.432       .  S
N925        H929   1.044       .  S
N925        H930   1.045       .  S
N928        H931   1.045   1_545  S
N928        H932   1.042   1_545  S
C933        C934   1.406       .  A
C933        C938   1.409       .  A
C933        H940   1.084       .  S
C934        C935   1.417       .  A
C935        C936   1.410       .  A
C935        N942   1.431       .  S
C936        C937   1.401       .  A
C936        H941   1.082       .  S
C937        C938   1.416       .  A
C938        N939   1.432       .  S
N939        H943   1.046       .  S
N939        H944   1.046       .  S
N942        H945   1.036       .  S
N942        H946   1.043       .  S
C947        C948   1.406       .  A
C947        C952   1.411       .  A
C947        H954   1.083       .  S
C948        C949   1.415       .  A
C949        C950   1.408       .  A
C949        N956   1.436       .  S
C950        C951   1.400       .  A
C950        H955   1.084       .  S
C951        C952   1.418       .  A
C952        N953   1.438       .  S
N953        H957   1.046       .  S
N953        H958   1.046       .  S
N956        H959   1.044       .  S
N956        H960   1.046       .  S
C961        C962   1.405       .  A
C961        C966   1.410       .  A
C961        H968   1.082       .  S
C962        C963   1.416       .  A
C963        C964   1.408       .  A
C963        N970   1.438       .  S
C964        C965   1.406       .  A
C964        H969   1.084       .  S
C965        C966   1.402       .  A
C966        N967   1.434       .  S
N967        H971   1.044       .  S
N967        H972   1.045       .  S
N970        H973   1.044       .  S
N970        H974   1.046       .  S
C975        C976   1.401       .  A
C975        C980   1.411       .  A
C975        H982   1.084       .  S
C976        C977   1.414       .  A
C977        C978   1.413       .  A
C977        N984   1.438       .  S
C978        C979   1.402       .  A
C978        H983   1.084       .  S
C979        C980   1.412       .  A
C980        N981   1.436       .  S
N981        H985   1.045       .  S
N981        H986   1.043       .  S
N984        H987   1.045       .  S
N984        H988   1.046       .  S
C989        C990   1.401       .  A
C989        C994   1.395       .  A
C989        H996   1.085       .  S
C990        C991   1.421       .  A
C991        C992   1.411       .  A
C991        N998   1.438       .  S
C992        C993   1.406       .  A
C992        H997   1.084       .  S
C993        C994   1.416       .  A
C994        N995   1.439       .  S
N995        H999   1.046       .  S
N995       H1000   1.044       .  S
N998       H1001   1.042       .  S
N998       H1002   1.046       .  S
C1003      C1004   1.404       .  A
C1003      C1008   1.392       .  A
C1003      H1010   1.085       .  S
C1004      C1005   1.412       .  A
C1005      C1006   1.415       .  A
C1005      N1012   1.436       .  S
C1006      C1007   1.409       .  A
C1006      H1011   1.084       .  S
C1007      C1008   1.410       .  A
C1008      N1009   1.440       .  S
N1009      H1013   1.046       .  S
N1009      H1014   1.044       .  S
N1012      H1015   1.045       .  S
N1012      H1016   1.046       .  S
C1017      C1018   1.413       .  A
C1017      C1022   1.395       .  A
C1017      H1024   1.082       .  S
C1018      C1019   1.407       .  A
C1019      C1020   1.412       .  A
C1019      N1026   1.435       .  S
C1020      C1021   1.410       .  A
C1020      H1025   1.084       .  S
C1021      C1022   1.399       .  A
C1022      N1023   1.440       .  S
N1023      H1027   1.046       .  S
N1023      H1028   1.046       .  S
N1026      H1029   1.045       .  S
N1026      H1030   1.043       .  S
C1031      C1032   1.407       .  A
C1031      C1036   1.412       .  A
C1031      H1038   1.084       .  S
C1032      C1033   1.411       .  A
C1033      C1034   1.393       .  A
C1033      N1040   1.440       .  S
C1034      C1035   1.403       .  A
C1034      H1039   1.085       .  S
C1035      C1036   1.411       .  A
C1036      N1037   1.437       .  S
N1037      H1041   1.046       .  S
N1037      H1042   1.045       .  S
N1040      H1043   1.044       .  S
N1040      H1044   1.046       .  S
C1045      C1046   1.396       .  A
C1045      C1050   1.401       .  A
C1045      H1052   1.085       .  S
C1046      C1047   1.413       .  A
C1047      C1048   1.418       .  A
C1047      N1054   1.436       .  S
C1048      C1049   1.410       .  A
C1048      H1053   1.083       .  S
C1049      C1050   1.424       .  A
C1050      N1051   1.438       .  S
N1051      H1055   1.046       .  S
N1051      H1056   1.046       .  S
N1054      H1057   1.045       .  S
N1054      H1058   1.046       .  S
C1059      C1060   1.410       .  A
C1059      C1064   1.416       .  A
C1059      H1066   1.079       .  S
C1060      C1061   1.413       .  A
C1061      C1062   1.391       .  A
C1061      N1068   1.443       .  S
C1062      C1063   1.410       .  A
C1062      H1067   1.084       .  S
C1063      C1064   1.410       .  A
C1064      N1065   1.433       .  S
N1065      H1069   1.046       .  S
N1065      H1070   1.043       .  S
N1068      H1071   1.042       .  S
N1068      H1072   1.046       .  S
C1073      C1074   1.396       .  A
C1073      C1078   1.405       .  A
C1073      H1080   1.084       .  S
C1074      C1075   1.423       .  A
C1075      C1076   1.405       .  A
C1075      N1082   1.432       .  S
C1076      C1077   1.398       .  A
C1076      H1081   1.084       .  S
C1077      C1078   1.412       .  A
C1078      N1079   1.433       .  S
N1079      H1083   1.043       .  S
N1079      H1084   1.044       .  S
N1082      H1085   1.046       .  S
N1082      H1086   1.043       .  S
C1087      C1088   1.401       .  A
C1087      C1092   1.403       .  A
C1087      H1094   1.084       .  S
C1088      C1089   1.406       .  A
C1089      C1090   1.417       .  A
C1089      N1096   1.434       .  S
C1090      C1091   1.410       .  A
C1090      H1095   1.082       .  S
C1091      C1092   1.420       .  A
C1092      N1093   1.439       .  S
N1093      H1097   1.046       .  S
N1093      H1098   1.046       .  S
N1096      H1099   1.044       .  S
N1096      H1100   1.044       .  S
C1101      C1102   1.406       .  A
C1101      C1106   1.392       .  A
C1101      H1108   1.084       .  S
C1102      C1103   1.414       .  A
C1103      C1104   1.416       .  A
C1103      N1110   1.437       .  S
C1104      C1105   1.408       .  A
C1104      H1109   1.083       .  S
C1105      C1106   1.397       .  A
C1106      N1107   1.435       .  S
N1107      H1111   1.046       .  S
N1107      H1112   1.046       .  S
N1110      H1113   1.046       .  S
N1110      H1114   1.045       .  S
C1115      C1116   1.404       .  A
C1115      C1120   1.391       .  A
C1115      H1122   1.086       .  S
C1116      C1117   1.423       .  A
C1117      C1118   1.409       .  A
C1117      N1124   1.438       .  S
C1118      C1119   1.405       .  A
C1118      H1123   1.083       .  S
C1119      C1120   1.409       .  A
C1120      N1121   1.440       .  S
N1121      H1125   1.046       .  S
N1121      H1126   1.044       .  S
N1124      H1127   1.040       .  S
C1129      C1130   1.412       .  A
C1129      C1134   1.406       .  A
C1129      H1136   1.084       .  S
C1130      C1131   1.402       .  A
C1131      C1132   1.405       .  A
C1131      N1138   1.437       .  S
C1132      C1133   1.413       .  A
C1132      H1137   1.084       .  S
C1133      C1134   1.403       .  A
C1134      N1135   1.437       .  S
N1135      H1140   1.045       .  S
N1138      H1141   1.046       .  S
N1138      H1142   1.046       .  S
C1143      C1144   1.408       .  A
C1143      C1148   1.395       .  A
C1143      H1150   1.082       .  S
C1144      C1145   1.412       .  A
C1145      C1146   1.416       .  A
C1145      N1152   1.437       .  S
C1146      C1147   1.410       .  A
C1146      H1151   1.084       .  S
C1147      C1148   1.403       .  A
C1148      N1149   1.441       .  S
N1149      H1153   1.046       .  S
N1149      H1154   1.045       .  S
N1152      H1155   1.045       .  S
N1152      H1156   1.046       .  S
C1157      C1158   1.408       .  A
C1157      C1162   1.413       .  A
C1157      H1164   1.084       .  S
C1158      C1159   1.403       .  A
C1159      C1160   1.404       .  A
C1159      N1166   1.436       .  S
C1160      C1161   1.407       .  A
C1160      H1165   1.084       .  S
C1161      C1162   1.407       .  A
C1162      N1163   1.436       .  S
N1163      H1167   1.046       .  S
N1163      H1168   1.046       .  S
N1166      H1169   1.045       .  S
N1166      H1170   1.044   1_455  S
C1171      C1172   1.406       .  A
C1171      C1176   1.409       .  A
C1171      H1178   1.083       .  S
C1172      C1173   1.419       .  A
C1173      C1174   1.405       .  A
C1173      N1180   1.438       .  S
C1174      C1175   1.400       .  A
C1174      H1179   1.084       .  S
C1175      C1176   1.412       .  A
C1176      N1177   1.438       .  S
N1177      H1181   1.045       .  S
N1177      H1182   1.046       .  S
N1180      H1183   1.046       .  S
N1180      H1184   1.046       .  S
C1185      C1186   1.401       .  A
C1185      C1190   1.400       .  A
C1185      H1192   1.082       .  S
C1186      C1187   1.411       .  A
C1187      C1188   1.421       .  A
C1187      N1194   1.435       .  S
C1188      C1189   1.412       .  A
C1188      H1193   1.083       .  S
C1189      C1190   1.416       .  A
C1190      N1191   1.439       .  S
N1191      H1195   1.046       .  S
N1191      H1196   1.046       .  S
N1194      H1197   1.045       .  S
N1194      H1198   1.044       .  S
C1199      C1200   1.398       .  A
C1199      C1204   1.407       .  A
C1199      H1206   1.084       .  S
C1200      C1201   1.409       .  A
C1201      C1202   1.410       .  A
C1201      N1208   1.431       .  S
C1202      C1203   1.401       .  A
C1202      H1207   1.084       .  S
C1203      C1204   1.420       .  A
C1204      N1205   1.437       .  S
N1205      H1209   1.046       .  S
N1205      H1210   1.046       .  S
N1208      H1211   1.046       .  S
N1208      H1212   1.042       .  S
N1213      N1214   1.335       .  A
N1213      N1219   1.320       .  A
N1213     Mn1848   2.255       .  S
N1214      C1221   1.366       .  A
N1215      N1217   1.319       .  A
N1215      N1216   1.308       .  A
N1215     Mn1837   2.162       .  S
N1216      C1222   1.337       .  A
N1217      N1218   1.329       .  A
N1217     Mn1242   2.230       .  S
N1218      C1222   1.360       .  A
N1219      N1220   1.304       .  A
N1219     Mn1231   2.152       .  S
N1220      C1221   1.334       .  A
C1221      C1750   1.484       .  S
C1222      C1725   1.464       .  S
N1223      N1229   1.311       .  A
N1223      N1224   1.331       .  A
N1223     Mn1859   2.223       .  S
N1224      C1232   1.358       .  A
N1225      N1226   1.317       .  A
N1225      N1227   1.310       .  A
N1225     Mn1231   2.165       .  S
N1226      C1233   1.345       .  A
N1227      N1228   1.327       .  A
N1227     Mn1253   2.217       .  S
N1228      C1233   1.358       .  A
N1229      N1230   1.315       .  A
N1229     Mn1837   2.167       .  S
N1230      C1232   1.345       .  A
Mn1231     N1821   2.162   1_554  S
Mn1231     N1835   2.167   1_554  S
Mn1231    Cl1255   2.446       .  S
C1232      C1795   1.497       .  S
C1233      C1809   1.493       .  S
N1234      N1235   1.333       .  A
N1234      N1240   1.319       .  A
N1234     Mn1242   2.246       .  S
N1235      C1243   1.364       .  A
N1236      N1238   1.323       .  A
N1236      N1237   1.311       .  A
N1236     Mn1860   2.180       .  S
N1237      C1244   1.339       .  A
N1238      N1239   1.330       .  A
N1238     Mn1848   2.234       .  S
N1239      C1244   1.360       .  A
N1240      N1241   1.303       .  A
N1240     Mn1254   2.147       .  S
N1241      C1243   1.333       .  A
Mn1242     N1819   2.255       .  S
Mn1242     N1844   2.234       .  S
Mn1242    Cl1861   2.612       .  S
C1243      C1708   1.478       .  S
C1244      C1736   1.478       .  S
N1245      N1246   1.325       .  A
N1245      N1251   1.312       .  A
N1245     Mn1253   2.205       .  S
N1246      C1256   1.355       .  A
N1247      N1248   1.322       .  A
N1247      N1249   1.310       .  A
N1247     Mn1254   2.184       .  S
N1248      C1257   1.349       .  A
N1249      N1250   1.323       .  A
N1249     Mn1859   2.195       .  S
N1250      C1257   1.352       .  A
N1251      N1252   1.319       .  A
N1251     Mn1860   2.185       .  S
N1252      C1256   1.349       .  A
Mn1253     N1829   2.223   1_554  S
Mn1253     N1855   2.195   1_554  S
Mn1253    Cl1255   2.602       .  S
Mn1254     N1842   2.180       .  S
Mn1254     N1857   2.185       .  S
Mn1254    Cl1861   2.437       .  S
Cl1255    Mn1848   2.612       .  S
Cl1255    Mn1860   2.437       .  S
C1256      C1778   1.491       .  S
C1257      C1764   1.480       .  S
N1258      N1259   1.330       .  A
N1258      N1264   1.311       .  A
N1258     Mn1287   2.222       .  S
N1259      C1266   1.361       .  A
N1260      N1262   1.311       .  A
N1260      N1261   1.319       .  A
N1260     Mn1882   2.171       .  S
N1261      C1267   1.345       .  A
N1262      N1263   1.326       .  A
N1262     Mn1893   2.211       .  S
N1263      C1267   1.354       .  A
N1264      N1265   1.316       .  A
N1264     Mn1276   2.178       .  S
N1265      C1266   1.347       .  A
C1266      C1697   1.500       .  S
C1267      C1680   1.484       .  S
N1268      N1274   1.320       .  A
N1268      N1269   1.331       .  A
N1268     Mn1904   2.246       .  S
N1269      C1277   1.363       .  A
N1270      N1271   1.307       .  A
N1270      N1272   1.321       .  A
N1270     Mn1276   2.156       .  S
N1271      C1278   1.334       .  A
N1272      N1273   1.331       .  A
N1272     Mn1298   2.242   1_554  S
N1273      C1278   1.362       .  A
N1274      N1275   1.305       .  A
N1274     Mn1882   2.154       .  S
N1275      C1277   1.335       .  A
Mn1276     N1866   2.171   1_554  S
Mn1276     N1880   2.154   1_554  S
Mn1276    Cl1300   2.442       .  S
C1277      C1641   1.471       .  S
C1278      C1613   1.464       .  S
N1279      N1280   1.333       .  A
N1279      N1285   1.310       .  A
N1279     Mn1893   2.237       .  S
N1280      C1288   1.361       .  A
N1281      N1283   1.311       .  A
N1281      N1282   1.313       .  A
N1281     Mn1299   2.151       .  S
N1282      C1289   1.343       .  A
N1283      N1284   1.329       .  A
N1283     Mn1287   2.222       .  S
N1284      C1289   1.359       .  A
N1285      N1286   1.314       .  A
N1285     Mn1905   2.156       .  S
N1286      C1288   1.341       .  A
Mn1287     N1868   2.211   1_554  S
Mn1287     N1885   2.237   1_554  S
Mn1287    Cl1300   2.597       .  S
C1288      C1655   1.503       .  S
C1289      C1666   1.480       .  S
N1290      N1291   1.332       .  A
N1290      N1296   1.319       .  A
N1290     Mn1298   2.244   1_554  S
N1291      C1301   1.364       .  A
N1292      N1293   1.303       .  A
N1292      N1294   1.318       .  A
N1292     Mn1905   2.146       .  S
N1293      C1302   1.333       .  A
N1294      N1295   1.333       .  A
N1294     Mn1904   2.249       .  S
N1295      C1302   1.367       .  A
N1296      N1297   1.309       .  A
N1296     Mn1299   2.163       .  S
N1297      C1301   1.336       .  A
Mn1298     N1874   2.246       .  S
Mn1298     N1900   2.249       .  S
Mn1298    Cl1300   2.615   1_556  S
Mn1299     N1891   2.156   1_554  S
Mn1299     N1898   2.146   1_554  S
Mn1299    Cl1300   2.444       .  S
C1301      C1596   1.474       .  S
C1302      C1624   1.484       .  S
N1303      N1304   1.330       .  A
N1303      N1309   1.320       .  A
N1303     Mn1332   2.240       .  S
N1304      C1311   1.360       .  A
N1305      N1307   1.319       .  A
N1305      N1306   1.305       .  A
N1305     Mn1321   2.151       .  S
N1306      C1312   1.334       .  A
N1307      N1308   1.333       .  A
N1307     Mn1332   2.248       .  S
N1308      C1312   1.365       .  A
N1309      N1310   1.308       .  A
N1309     Mn1321   2.157       .  S
N1310      C1311   1.335       .  A
C1311      C1753   1.465       .  S
C1312      C1610   1.477       .  S
N1313      N1319   1.311       .  A
N1313      N1314   1.323       .  A
N1314      C1322   1.356       .  A
N1315      N1316   1.323       .  A
N1315      N1317   1.312       .  A
N1315     Mn1321   2.190       .  S
N1316      C1323   1.350       .  A
N1317      N1318   1.325       .  A
N1318      C1323   1.355       .  A
N1319      N1320   1.322       .  A
N1319     Mn1321   2.179       .  S
N1320      C1322   1.347       .  A
C1322      C1571   1.483       .  S
C1323      C1582   1.484       .  S
N1324      N1325   1.331       .  A
N1324      N1330   1.321       .  A
N1325      C1333   1.363       .  A
N1326      N1328   1.322       .  A
N1326      N1327   1.311       .  A
N1326     Mn1344   2.174       .  S
N1327      C1334   1.339       .  A
N1328      N1329   1.330       .  A
N1329      C1334   1.360       .  A
N1330      N1331   1.310       .  A
N1330     Mn1344   2.166       .  S
N1331      C1333   1.338       .  A
C1333      C1599   1.477       .  S
C1334      C1739   1.482       .  S
N1335      N1336   1.321       .  A
N1335      N1341   1.313       .  A
N1335     Mn1343   2.204   1_565  S
N1336      C1346   1.353       .  A
N1337      N1338   1.322       .  A
N1337      N1339   1.312       .  A
N1337     Mn1344   2.195       .  S
N1338      C1347   1.352       .  A
N1339      N1340   1.324       .  A
N1339     Mn1343   2.215   1_565  S
N1340      C1347   1.357       .  A
N1341      N1342   1.323       .  A
N1341     Mn1344   2.195       .  S
N1342      C1346   1.352       .  A
Mn1343    Cl1345   2.590       .  S
Mn1344    Cl1345   2.466   1_565  S
C1346      C1554   1.495       .  S
C1347      C1540   1.502       .  S
N1348      N1349   1.325       .  A
N1348      N1354   1.312       .  A
N1348     Mn1377   2.226       .  S
N1349      C1356   1.358       .  A
N1350      N1352   1.314       .  A
N1350      N1351   1.320       .  A
N1350     Mn1366   2.172       .  S
N1351      C1357   1.344       .  A
N1352      N1353   1.326       .  A
N1352     Mn1377   2.227       .  S
N1353      C1357   1.357       .  A
N1354      N1355   1.322       .  A
N1354     Mn1366   2.182       .  S
N1355      C1356   1.350       .  A
C1356      C1526   1.494       .  S
C1357      C1515   1.480       .  S
N1358      N1364   1.318       .  A
N1358      N1359   1.329       .  A
N1358     Mn1388   2.227       .  S
N1359      C1367   1.359       .  A
N1360      N1361   1.306       .  A
N1360      N1362   1.320       .  A
N1360     Mn1366   2.156       .  S
N1361      C1368   1.337       .  A
N1362      N1363   1.330       .  A
N1362     Mn1388   2.238       .  S
N1363      C1368   1.362       .  A
N1364      N1365   1.308       .  A
N1364     Mn1366   2.161       .  S
N1365      C1367   1.337       .  A
Mn1366    Cl1390   2.476       .  S
C1367      C1638   1.462       .  S
C1368      C1722   1.475       .  S
N1369      N1370   1.326       .  A
N1369      N1375   1.311       .  A
N1370      C1378   1.359       .  A
N1371      N1373   1.313       .  A
N1371      N1372   1.319       .  A
N1371     Mn1389   2.179       .  S
N1372      C1379   1.348       .  A
N1373      N1374   1.325       .  A
N1374      C1379   1.359       .  A
N1375      N1376   1.320       .  A
N1375     Mn1389   2.189       .  S
N1376      C1378   1.351       .  A
Mn1377    Cl1390   2.576       .  S
C1378      C1487   1.498       .  S
C1379      C1501   1.489       .  S
N1380      N1381   1.329       .  A
N1380      N1386   1.320       .  A
N1381      C1391   1.357       .  A
N1382      N1383   1.307       .  A
N1382      N1384   1.320       .  A
N1382     Mn1389   2.149       .  S
N1383      C1392   1.334       .  A
N1384      N1385   1.329       .  A
N1385      C1392   1.359       .  A
N1386      N1387   1.310       .  A
N1386     Mn1389   2.173       .  S
N1387      C1391   1.338       .  A
Mn1388    Cl1390   2.611       .  S
C1391      C1711   1.463       .  S
C1392      C1627   1.458       .  S
N1393      N1394   1.329       .  A
N1393      N1399   1.321       .  A
N1393     Mn3846   2.243   1_455  S
N1394      C1401   1.361       .  A
N1395      N1397   1.320       .  A
N1395      N1396   1.310       .  A
N1395     Mn3835   2.169       .  S
N1396      C1402   1.340       .  A
N1397      N1398   1.331       .  A
N1397     Mn1422   2.255       .  S
N1398      C1402   1.365       .  A
N1399      N1400   1.313       .  A
N1399     Mn1411   2.188   1_455  S
N1400      C1401   1.342       .  A
C1401      C1806   1.477       .  S
C1402      C1694   1.483       .  S
N1403      N1409   1.313       .  A
N1403      N1404   1.325       .  A
N1403     Mn3857   2.212       .  S
N1404      C1412   1.355       .  A
N1405      N1406   1.322       .  A
N1405      N1407   1.313       .  A
N1405     Mn1411   2.190   1_455  S
N1406      C1413   1.350       .  A
N1407      N1408   1.326       .  A
N1407     Mn1433   2.228   1_455  S
N1408      C1413   1.357       .  A
N1409      N1410   1.322       .  A
N1409     Mn3835   2.199       .  S
N1410      C1412   1.350       .  A
Mn1411     N3819   2.169       .  S
Mn1411     N3833   2.199       .  S
Mn1411    Cl1435   2.481       .  S
C1412      C1568   1.484       .  S
C1413      C1585   1.485       .  S
N1414      N1415   1.329       .  A
N1414      N1420   1.320       .  A
N1414     Mn1422   2.244       .  S
N1415      C1423   1.362       .  A
N1416      N1418   1.318       .  A
N1416      N1417   1.308       .  A
N1416     Mn1434   2.176   1_455  S
N1417      C1424   1.341       .  A
N1418      N1419   1.335       .  A
N1418     Mn3846   2.255   1_455  S
N1419      C1424   1.366       .  A
N1420      N1421   1.312       .  A
N1420     Mn3858   2.184       .  S
N1421      C1423   1.342       .  A
Mn1422     N3817   2.243       .  S
Mn1422     N3842   2.255       .  S
Mn1422    Cl3859   2.607       .  S
C1423      C1683   1.476       .  S
C1424      C1792   1.490       .  S
N1425      N1426   1.323       .  A
N1425      N1431   1.312       .  A
N1425     Mn1433   2.206   1_455  S
N1426      C1436   1.354       .  A
N1427      N1428   1.321       .  A
N1427      N1429   1.312       .  A
N1427     Mn3858   2.186       .  S
N1428      C1437   1.349       .  A
N1429      N1430   1.325       .  A
N1429     Mn3857   2.219       .  S
N1430      C1437   1.356       .  A
N1431      N1432   1.322       .  A
N1431     Mn1434   2.195   1_455  S
N1432      C1436   1.351       .  A
Mn1433     N3827   2.212       .  S
Mn1433     N3853   2.219       .  S
Mn1433    Cl1435   2.593       .  S
Mn1434     N3844   2.184       .  S
Mn1434     N3851   2.186       .  S
Mn1434    Cl1435   2.473       .  S
Cl1435    Mn3846   2.607       .  S
C1436      C1529   1.490       .  S
C1437      C1512   1.483       .  S
N1438      N1439   1.324       .  A
N1438      N1444   1.311       .  A
N1438     Mn3891   2.225       .  S
N1439      C1446   1.361       .  A
N1440      N1442   1.311       .  A
N1440      N1441   1.321       .  A
N1440     Mn1456   2.187       .  S
N1441      C1447   1.350       .  A
N1442      N1443   1.325       .  A
N1442     Mn1467   2.216       .  S
N1443      C1447   1.358       .  A
N1444      N1445   1.319       .  A
N1444     Mn3880   2.179   1_455  S
N1445      C1446   1.350       .  A
C1446      C1557   1.494       .  S
C1447      C1543   1.496       .  S
N1448      N1454   1.315       .  A
N1448      N1449   1.336       .  A
N1448     Mn1478   2.264       .  S
N1449      C1457   1.372       .  A
N1450      N1451   1.313       .  A
N1450      N1452   1.320       .  A
N1450     Mn3880   2.184   1_455  S
N1451      C1458   1.342       .  A
N1452      N1453   1.328       .  A
N1452     Mn3902   2.233   1_455  S
N1453      C1458   1.359       .  A
N1454      N1455   1.302       .  A
N1454     Mn1456   2.149       .  S
N1455      C1457   1.336       .  A
Mn1456     N3868   2.179       .  S
Mn1456     N3874   2.184       .  S
Mn1456    Cl1480   2.463       .  S
C1457      C1669   1.497       .  S
C1458      C1781   1.473       .  S
N1459      N1460   1.321       .  A
N1459      N1465   1.313       .  A
N1459     Mn1467   2.208       .  S
N1460      C1468   1.354       .  A
N1461      N1463   1.313       .  A
N1461      N1462   1.323       .  A
N1461     Mn3903   2.193   1_455  S
N1462      C1469   1.349       .  A
N1463      N1464   1.323       .  A
N1463     Mn3891   2.214       .  S
N1464      C1469   1.358       .  A
N1465      N1466   1.323       .  A
N1465     Mn1479   2.190       .  S
N1466      C1468   1.353       .  A
Mn1467     N3862   2.225       .  S
Mn1467     N3887   2.214       .  S
Mn1467    Cl1480   2.586       .  S
C1468      C1484   1.495       .  S
C1469      C1498   1.488       .  S
N1470      N1471   1.331       .  A
N1470      N1476   1.321       .  A
N1470     Mn3902   2.256   1_455  S
N1471      C1481   1.364       .  A
N1472      N1473   1.312       .  A
N1472      N1474   1.321       .  A
N1472     Mn1479   2.189       .  S
N1473      C1482   1.342       .  A
N1474      N1475   1.332       .  A
N1474     Mn1478   2.232       .  S
N1475      C1482   1.360       .  A
N1476      N1477   1.310       .  A
N1476     Mn3903   2.174   1_455  S
N1477      C1481   1.339       .  A
Mn1478     N3876   2.233       .  S
Mn1478     N3894   2.256       .  S
Mn1478    Cl1480   2.625       .  S
Mn1479     N3885   2.193       .  S
Mn1479     N3900   2.174       .  S
Mn1479    Cl1480   2.469       .  S
C1481      C1767   1.476       .  S
C1482      C1652   1.480       .  S
C1483      C1484   1.406       .  A
C1483      C1488   1.410       .  A
C1483      H1490   1.083       .  S
C1484      C1485   1.413       .  A
C1485      C1486   1.410       .  A
C1485      N1492   1.437       .  S
C1486      C1487   1.406       .  A
C1486      H1491   1.082       .  S
C1487      C1488   1.417       .  A
C1488      N1489   1.438       .  S
N1489      H1493   1.046       .  S
N1489      H1494   1.045       .  S
N1492      H1495   1.043       .  S
N1492      H1496   1.043   1_565  S
C1497      C1498   1.399       .  A
C1497      C1502   1.414       .  A
C1497      H1504   1.084       .  S
C1498      C1499   1.402       .  A
C1499      C1500   1.404       .  A
C1499      N1506   1.419       .  S
C1500      C1501   1.397       .  A
C1500      H1505   1.084       .  S
C1501      C1502   1.419       .  A
C1502      N1503   1.433       .  S
N1503      H1507   1.045       .  S
N1503      H1508   1.045       .  S
N1506      H1509   1.046       .  S
N1506      H1510   1.037       .  S
C1511      C1512   1.404       .  A
C1511      C1516   1.411       .  A
C1511      H1518   1.083       .  S
C1512      C1513   1.421       .  A
C1513      C1514   1.404       .  A
C1513      N1520   1.439       .  S
C1514      C1515   1.397       .  A
C1514      H1519   1.082       .  S
C1515      C1516   1.410       .  A
C1516      N1517   1.438       .  S
N1517      H1521   1.046       .  S
N1517      H1522   1.041       .  S
N1520      H1523   1.042       .  S
N1520      H1524   1.045       .  S
C1525      C1526   1.404       .  A
C1525      C1530   1.406       .  A
C1525      H1532   1.084       .  S
C1526      C1527   1.414       .  A
C1527      C1528   1.399       .  A
C1527      N1534   1.423       .  S
C1528      C1529   1.400       .  A
C1528      H1533   1.084       .  S
C1529      C1530   1.421       .  A
C1530      N1531   1.432       .  S
N1531      H1535   1.044       .  S
N1531      H1536   1.045       .  S
N1534      H1537   1.045       .  S
N1534      H1538   1.042       .  S
C1539      C1540   1.406       .  A
C1539      C1544   1.409       .  A
C1539      H1546   1.084       .  S
C1540      C1541   1.417       .  A
C1541      C1542   1.410       .  A
C1541      N1548   1.431       .  S
C1542      C1543   1.401       .  A
C1542      H1547   1.082       .  S
C1543      C1544   1.416       .  A
C1544      N1545   1.432       .  S
N1545      H1549   1.046       .  S
N1545      H1550   1.046       .  S
N1548      H1551   1.036   1_565  S
N1548      H1552   1.043   1_565  S
C1553      C1554   1.406       .  A
C1553      C1558   1.411       .  A
C1553      H1560   1.083       .  S
C1554      C1555   1.415       .  A
C1555      C1556   1.408       .  A
C1555      N1562   1.436       .  S
C1556      C1557   1.400       .  A
C1556      H1561   1.084       .  S
C1557      C1558   1.418       .  A
C1558      N1559   1.438       .  S
N1559      H1563   1.046       .  S
N1559      H1564   1.046       .  S
N1562      H1565   1.044       .  S
N1562      H1566   1.046   1_565  S
C1567      C1568   1.405       .  A
C1567      C1572   1.410       .  A
C1567      H1574   1.082       .  S
C1568      C1569   1.416       .  A
C1569      C1570   1.408       .  A
C1569      N1576   1.438       .  S
C1570      C1571   1.406       .  A
C1570      H1575   1.084       .  S
C1571      C1572   1.402       .  A
C1572      N1573   1.434       .  S
N1573      H1577   1.044       .  S
N1573      H1578   1.045       .  S
N1576      H1579   1.044       .  S
N1576      H1580   1.046       .  S
C1581      C1582   1.401       .  A
C1581      C1586   1.411       .  A
C1581      H1588   1.084       .  S
C1582      C1583   1.414       .  A
C1583      C1584   1.413       .  A
C1583      N1590   1.438       .  S
C1584      C1585   1.402       .  A
C1584      H1589   1.084       .  S
C1585      C1586   1.412       .  A
C1586      N1587   1.436       .  S
N1587      H1591   1.045       .  S
N1587      H1592   1.043       .  S
N1590      H1593   1.045       .  S
N1590      H1594   1.046       .  S
C1595      C1596   1.401       .  A
C1595      C1600   1.395       .  A
C1595      H1602   1.085       .  S
C1596      C1597   1.421       .  A
C1597      C1598   1.411       .  A
C1597      N1604   1.438       .  S
C1598      C1599   1.406       .  A
C1598      H1603   1.084       .  S
C1599      C1600   1.416       .  A
C1600      N1601   1.439       .  S
N1601      H1605   1.046       .  S
N1601      H1606   1.044       .  S
N1604      H1607   1.042       .  S
N1604      H1608   1.046       .  S
C1609      C1610   1.404       .  A
C1609      C1614   1.392       .  A
C1609      H1616   1.085       .  S
C1610      C1611   1.412       .  A
C1611      C1612   1.415       .  A
C1611      N1618   1.436       .  S
C1612      C1613   1.409       .  A
C1612      H1617   1.084       .  S
C1613      C1614   1.410       .  A
C1614      N1615   1.440       .  S
N1615      H1619   1.046       .  S
N1615      H1620   1.044       .  S
N1618      H1621   1.045       .  S
N1618      H1622   1.046       .  S
C1623      C1624   1.413       .  A
C1623      C1628   1.395       .  A
C1623      H1630   1.082       .  S
C1624      C1625   1.407       .  A
C1625      C1626   1.412       .  A
C1625      N1632   1.435       .  S
C1626      C1627   1.410       .  A
C1626      H1631   1.084       .  S
C1627      C1628   1.399       .  A
C1628      N1629   1.440       .  S
N1629      H1633   1.046       .  S
N1629      H1634   1.046       .  S
N1632      H1635   1.045       .  S
N1632      H1636   1.043       .  S
C1637      C1638   1.407       .  A
C1637      C1642   1.412       .  A
C1637      H1644   1.084       .  S
C1638      C1639   1.411       .  A
C1639      C1640   1.393       .  A
C1639      N1646   1.440       .  S
C1640      C1641   1.403       .  A
C1640      H1645   1.085       .  S
C1641      C1642   1.411       .  A
C1642      N1643   1.437       .  S
N1643      H1647   1.046       .  S
N1643      H1648   1.045       .  S
N1646      H1649   1.044       .  S
N1646      H1650   1.046       .  S
C1651      C1652   1.396       .  A
C1651      C1656   1.401       .  A
C1651      H1658   1.085       .  S
C1652      C1653   1.413       .  A
C1653      C1654   1.418       .  A
C1653      N1660   1.436       .  S
C1654      C1655   1.410       .  A
C1654      H1659   1.083       .  S
C1655      C1656   1.424       .  A
C1656      N1657   1.438       .  S
N1657      H1661   1.046       .  S
N1657      H1662   1.046       .  S
N1660      H1663   1.045       .  S
N1660      H1664   1.046       .  S
C1665      C1666   1.410       .  A
C1665      C1670   1.416       .  A
C1665      H1672   1.079       .  S
C1666      C1667   1.413       .  A
C1667      C1668   1.391       .  A
C1667      N1674   1.443       .  S
C1668      C1669   1.410       .  A
C1668      H1673   1.084       .  S
C1669      C1670   1.410       .  A
C1670      N1671   1.433       .  S
N1671      H1675   1.046       .  S
N1671      H1676   1.043       .  S
N1674      H1677   1.042       .  S
N1674      H1678   1.046       .  S
C1679      C1680   1.396       .  A
C1679      C1684   1.405       .  A
C1679      H1686   1.084       .  S
C1680      C1681   1.423       .  A
C1681      C1682   1.405       .  A
C1681      N1688   1.432       .  S
C1682      C1683   1.398       .  A
C1682      H1687   1.084       .  S
C1683      C1684   1.412       .  A
C1684      N1685   1.433       .  S
N1685      H1689   1.043       .  S
N1685      H1690   1.044       .  S
N1688      H1691   1.046       .  S
N1688      H1692   1.043       .  S
C1693      C1694   1.401       .  A
C1693      C1698   1.403       .  A
C1693      H1700   1.084       .  S
C1694      C1695   1.406       .  A
C1695      C1696   1.417       .  A
C1695      N1702   1.434       .  S
C1696      C1697   1.411       .  A
C1696      H1701   1.082       .  S
C1697      C1698   1.420       .  A
C1698      N1699   1.439       .  S
N1699      H1703   1.046       .  S
N1699      H1704   1.046       .  S
N1702      H1705   1.044       .  S
N1702      H1706   1.044       .  S
C1707      C1708   1.406       .  A
C1707      C1712   1.392       .  A
C1707      H1714   1.084       .  S
C1708      C1709   1.414       .  A
C1709      C1710   1.416       .  A
C1709      N1716   1.437       .  S
C1710      C1711   1.408       .  A
C1710      H1715   1.083       .  S
C1711      C1712   1.397       .  A
C1712      N1713   1.435       .  S
N1713      H1717   1.046       .  S
N1713      H1718   1.046       .  S
N1716      H1719   1.046       .  S
N1716      H1720   1.045       .  S
C1721      C1722   1.404       .  A
C1721      C1726   1.391       .  A
C1721      H1728   1.086       .  S
C1722      C1723   1.423       .  A
C1723      C1724   1.409       .  A
C1723      N1730   1.438       .  S
C1724      C1725   1.405       .  A
C1724      H1729   1.083       .  S
C1725      C1726   1.409       .  A
C1726      N1727   1.440       .  S
N1727      H1731   1.046       .  S
N1727      H1732   1.044       .  S
N1730      H1733   1.040       .  S
N1730      H2340   1.046       .  S
H1734      N2336   1.046       .  S
C1735      C1736   1.412       .  A
C1735      C1740   1.406       .  A
C1735      H1742   1.084       .  S
C1736      C1737   1.402       .  A
C1737      C1738   1.405       .  A
C1737      N1744   1.437       .  S
C1738      C1739   1.413       .  A
C1738      H1743   1.084       .  S
C1739      C1740   1.403       .  A
C1740      N1741   1.437       .  S
N1741      H2351   1.046       .  S
N1741      H1746   1.045       .  S
N1744      H1747   1.046       .  S
N1744      H1748   1.046       .  S
H1745      N2347   1.046       .  S
C1749      C1750   1.408       .  A
C1749      C1754   1.395       .  A
C1749      H1756   1.082       .  S
C1750      C1751   1.412       .  A
C1751      C1752   1.416       .  A
C1751      N1758   1.437       .  S
C1752      C1753   1.410       .  A
C1752      H1757   1.084       .  S
C1753      C1754   1.403       .  A
C1754      N1755   1.441       .  S
N1755      H1759   1.046       .  S
N1755      H1760   1.045       .  S
N1758      H1761   1.045       .  S
N1758      H1762   1.046       .  S
C1763      C1764   1.408       .  A
C1763      C1768   1.413       .  A
C1763      H1770   1.084       .  S
C1764      C1765   1.403       .  A
C1765      C1766   1.404       .  A
C1765      N1772   1.436       .  S
C1766      C1767   1.407       .  A
C1766      H1771   1.084       .  S
C1767      C1768   1.407       .  A
C1768      N1769   1.436       .  S
N1769      H1773   1.046       .  S
N1769      H1774   1.046       .  S
N1772      H1775   1.045       .  S
N1772      H1776   1.044   1_455  S
C1777      C1778   1.406       .  A
C1777      C1782   1.409       .  A
C1777      H1784   1.083       .  S
C1778      C1779   1.419       .  A
C1779      C1780   1.405       .  A
C1779      N1786   1.438       .  S
C1780      C1781   1.400       .  A
C1780      H1785   1.084       .  S
C1781      C1782   1.412       .  A
C1782      N1783   1.438       .  S
N1783      H1787   1.045       .  S
N1783      H1788   1.046       .  S
N1786      H1789   1.046       .  S
N1786      H1790   1.046       .  S
C1791      C1792   1.401       .  A
C1791      C1796   1.400       .  A
C1791      H1798   1.082       .  S
C1792      C1793   1.411       .  A
C1793      C1794   1.421       .  A
C1793      N1800   1.435       .  S
C1794      C1795   1.412       .  A
C1794      H1799   1.083       .  S
C1795      C1796   1.416       .  A
C1796      N1797   1.439       .  S
N1797      H1801   1.046       .  S
N1797      H1802   1.046       .  S
N1800      H1803   1.045       .  S
N1800      H1804   1.044       .  S
C1805      C1806   1.398       .  A
C1805      C1810   1.407       .  A
C1805      H1812   1.084       .  S
C1806      C1807   1.409       .  A
C1807      C1808   1.410       .  A
C1807      N1814   1.431       .  S
C1808      C1809   1.401       .  A
C1808      H1813   1.084       .  S
C1809      C1810   1.420       .  A
C1810      N1811   1.437       .  S
N1811      H1815   1.046       .  S
N1811      H1816   1.046       .  S
N1814      H1817   1.046       .  S
N1814      H1818   1.042       .  S
N1819      N1820   1.335       .  A
N1819      N1825   1.320       .  A
N1820      C1827   1.366       .  A
N1821      N1823   1.319       .  A
N1821      N1822   1.308       .  A
N1822      C1828   1.337       .  A
N1823      N1824   1.329       .  A
N1823     Mn1848   2.230   1_556  S
N1824      C1828   1.360       .  A
N1825      N1826   1.304       .  A
N1825     Mn1837   2.152       .  S
N1826      C1827   1.334       .  A
C1827      C2356   1.484       .  S
C1828      C2331   1.464       .  S
N1829      N1835   1.311       .  A
N1829      N1830   1.331       .  A
N1830      C1838   1.358       .  A
N1831      N1832   1.317       .  A
N1831      N1833   1.310       .  A
N1831     Mn1837   2.165       .  S
N1832      C1839   1.345       .  A
N1833      N1834   1.327       .  A
N1833     Mn1859   2.217       .  S
N1834      C1839   1.358       .  A
N1835      N1836   1.315       .  A
N1836      C1838   1.345       .  A
Mn1837    Cl1861   2.446       .  S
C1838      C2401   1.497       .  S
C1839      C2415   1.493       .  S
N1840      N1841   1.333       .  A
N1840      N1846   1.319       .  A
N1840     Mn1848   2.246   1_556  S
N1841      C1849   1.364       .  A
N1842      N1844   1.323       .  A
N1842      N1843   1.311       .  A
N1843      C1850   1.339       .  A
N1844      N1845   1.330       .  A
N1845      C1850   1.360       .  A
N1846      N1847   1.303       .  A
N1846     Mn1860   2.147   1_556  S
N1847      C1849   1.333       .  A
C1849      C2314   1.478       .  S
C1850      C2342   1.478       .  S
N1851      N1852   1.325       .  A
N1851      N1857   1.312       .  A
N1851     Mn1859   2.205       .  S
N1852      C1862   1.355       .  A
N1853      N1854   1.322       .  A
N1853      N1855   1.310       .  A
N1853     Mn1860   2.184   1_556  S
N1854      C1863   1.349       .  A
N1855      N1856   1.323       .  A
N1856      C1863   1.352       .  A
N1857      N1858   1.319       .  A
N1858      C1862   1.349       .  A
Mn1859    Cl1861   2.602       .  S
C1862      C2384   1.491       .  S
C1863      C2370   1.480       .  S
N1864      N1865   1.330       .  A
N1864      N1870   1.311       .  A
N1864     Mn1893   2.222       .  S
N1865      C1872   1.361       .  A
N1866      N1868   1.311       .  A
N1866      N1867   1.319       .  A
N1867      C1873   1.345       .  A
N1868      N1869   1.326       .  A
N1869      C1873   1.354       .  A
N1870      N1871   1.316       .  A
N1870     Mn1882   2.178       .  S
N1871      C1872   1.347       .  A
C1872      C2303   1.500       .  S
C1873      C2286   1.484       .  S
N1874      N1880   1.320       .  A
N1874      N1875   1.331       .  A
N1875      C1883   1.363       .  A
N1876      N1877   1.307       .  A
N1876      N1878   1.321       .  A
N1876     Mn1882   2.156       .  S
N1877      C1884   1.334       .  A
N1878      N1879   1.331       .  A
N1878     Mn1904   2.242       .  S
N1879      C1884   1.362       .  A
N1880      N1881   1.305       .  A
N1881      C1883   1.335       .  A
Mn1882    Cl1906   2.442       .  S
C1883      C2247   1.471       .  S
C1884      C2219   1.464       .  S
N1885      N1886   1.333       .  A
N1885      N1891   1.310       .  A
N1886      C1894   1.361       .  A
N1887      N1889   1.311       .  A
N1887      N1888   1.313       .  A
N1887     Mn1905   2.151       .  S
N1888      C1895   1.343       .  A
N1889      N1890   1.329       .  A
N1889     Mn1893   2.222       .  S
N1890      C1895   1.359       .  A
N1891      N1892   1.314       .  A
N1892      C1894   1.341       .  A
Mn1893    Cl1906   2.597       .  S
C1894      C2261   1.503       .  S
C1895      C2272   1.480       .  S
N1896      N1897   1.332       .  A
N1896      N1902   1.319       .  A
N1896     Mn1904   2.244       .  S
N1897      C1907   1.364       .  A
N1898      N1899   1.303       .  A
N1898      N1900   1.318       .  A
N1899      C1908   1.333       .  A
N1900      N1901   1.333       .  A
N1901      C1908   1.367       .  A
N1902      N1903   1.309       .  A
N1902     Mn1905   2.163       .  S
N1903      C1907   1.336       .  A
Mn1904    Cl1906   2.615       .  S
Mn1905    Cl1906   2.444       .  S
C1907      C2202   1.474       .  S
C1908      C2230   1.484       .  S
N1909      N1910   1.330       .  A
N1909      N1915   1.320       .  A
N1909     Mn1938   2.240       .  S
N1910      C1917   1.360       .  A
N1911      N1913   1.319       .  A
N1911      N1912   1.305       .  A
N1911     Mn1927   2.151       .  S
N1912      C1918   1.334       .  A
N1913      N1914   1.333       .  A
N1913     Mn1938   2.248       .  S
N1914      C1918   1.365       .  A
N1915      N1916   1.308       .  A
N1915     Mn1927   2.157       .  S
N1916      C1917   1.335       .  A
C1917      C2359   1.465       .  S
C1918      C2216   1.477       .  S
N1919      N1925   1.311       .  A
N1919      N1920   1.323       .  A
N1920      C1928   1.356       .  A
N1921      N1922   1.323       .  A
N1921      N1923   1.312       .  A
N1921     Mn1927   2.190       .  S
N1922      C1929   1.350       .  A
N1923      N1924   1.325       .  A
N1924      C1929   1.355       .  A
N1925      N1926   1.322       .  A
N1925     Mn1927   2.179       .  S
N1926      C1928   1.347       .  A
C1928      C2177   1.483       .  S
C1929      C2188   1.484       .  S
N1930      N1931   1.331       .  A
N1930      N1936   1.321       .  A
N1931      C1939   1.363       .  A
N1932      N1934   1.322       .  A
N1932      N1933   1.311       .  A
N1932     Mn1950   2.174       .  S
N1933      C1940   1.339       .  A
N1934      N1935   1.330       .  A
N1935      C1940   1.360       .  A
N1936      N1937   1.310       .  A
N1936     Mn1950   2.166       .  S
N1937      C1939   1.338       .  A
C1939      C2205   1.477       .  S
C1940      C2345   1.482       .  S
N1941      N1942   1.321       .  A
N1941      N1947   1.313       .  A
N1941     Mn1949   2.204   1_565  S
N1942      C1952   1.353       .  A
N1943      N1944   1.322       .  A
N1943      N1945   1.312       .  A
N1943     Mn1950   2.195       .  S
N1944      C1953   1.352       .  A
N1945      N1946   1.324       .  A
N1945     Mn1949   2.215   1_565  S
N1946      C1953   1.357       .  A
N1947      N1948   1.323       .  A
N1947     Mn1950   2.195       .  S
N1948      C1952   1.352       .  A
Mn1949    Cl1951   2.590       .  S
Mn1950    Cl1951   2.466   1_565  S
C1952      C2160   1.495       .  S
C1953      C2146   1.502       .  S
N1954      N1955   1.325       .  A
N1954      N1960   1.312       .  A
N1954     Mn1983   2.226       .  S
N1955      C1962   1.358       .  A
N1956      N1958   1.314       .  A
N1956      N1957   1.320       .  A
N1956     Mn1972   2.172       .  S
N1957      C1963   1.344       .  A
N1958      N1959   1.326       .  A
N1958     Mn1983   2.227       .  S
N1959      C1963   1.357       .  A
N1960      N1961   1.322       .  A
N1960     Mn1972   2.182       .  S
N1961      C1962   1.350       .  A
C1962      C2132   1.494       .  S
C1963      C2121   1.480       .  S
N1964      N1970   1.318       .  A
N1964      N1965   1.329       .  A
N1964     Mn1994   2.227       .  S
N1965      C1973   1.359       .  A
N1966      N1967   1.306       .  A
N1966      N1968   1.320       .  A
N1966     Mn1972   2.156       .  S
N1967      C1974   1.337       .  A
N1968      N1969   1.330       .  A
N1968     Mn1994   2.238       .  S
N1969      C1974   1.362       .  A
N1970      N1971   1.308       .  A
N1970     Mn1972   2.161       .  S
N1971      C1973   1.337       .  A
Mn1972    Cl1996   2.476       .  S
C1973      C2244   1.462       .  S
C1974      C2328   1.475       .  S
N1975      N1976   1.326       .  A
N1975      N1981   1.311       .  A
N1976      C1984   1.359       .  A
N1977      N1979   1.313       .  A
N1977      N1978   1.319       .  A
N1977     Mn1995   2.178       .  S
N1978      C1985   1.348       .  A
N1979      N1980   1.325       .  A
N1980      C1985   1.359       .  A
N1981      N1982   1.320       .  A
N1981     Mn1995   2.188       .  S
N1982      C1984   1.351       .  A
Mn1983    Cl1996   2.576       .  S
C1984      C2093   1.498       .  S
C1985      C2107   1.489       .  S
N1986      N1987   1.329       .  A
N1986      N1992   1.321       .  A
N1987      C1997   1.357       .  A
N1988      N1989   1.307       .  A
N1988      N1990   1.320       .  A
N1988     Mn1995   2.150       .  S
N1989      C1998   1.334       .  A
N1990      N1991   1.329       .  A
N1991      C1998   1.359       .  A
N1992      N1993   1.310       .  A
N1992     Mn1995   2.174       .  S
N1993      C1997   1.338       .  A
Mn1994    Cl1996   2.611       .  S
C1997      C2317   1.463       .  S
C1998      C2233   1.458       .  S
N1999      N2000   1.329       .  A
N1999      N2005   1.321       .  A
N1999     Mn4452   2.243   1_455  S
N2000      C2007   1.361       .  A
N2001      N2003   1.320       .  A
N2001      N2002   1.310       .  A
N2001     Mn4441   2.169       .  S
N2002      C2008   1.340       .  A
N2003      N2004   1.331       .  A
N2003     Mn2028   2.255       .  S
N2004      C2008   1.365       .  A
N2005      N2006   1.313       .  A
N2005     Mn2017   2.188   1_455  S
N2006      C2007   1.342       .  A
C2007      C2412   1.477       .  S
C2008      C2300   1.483       .  S
N2009      N2015   1.313       .  A
N2009      N2010   1.325       .  A
N2009     Mn4463   2.212       .  S
N2010      C2018   1.355       .  A
N2011      N2012   1.322       .  A
N2011      N2013   1.313       .  A
N2011     Mn2017   2.190   1_455  S
N2012      C2019   1.350       .  A
N2013      N2014   1.326       .  A
N2013     Mn2039   2.228   1_455  S
N2014      C2019   1.357       .  A
N2015      N2016   1.322       .  A
N2015     Mn4441   2.199       .  S
N2016      C2018   1.350       .  A
Mn2017     N4425   2.169       .  S
Mn2017     N4439   2.199       .  S
Mn2017    Cl2041   2.481       .  S
C2018      C2174   1.484       .  S
C2019      C2191   1.485       .  S
N2020      N2021   1.329       .  A
N2020      N2026   1.320       .  A
N2020     Mn2028   2.244       .  S
N2021      C2029   1.362       .  A
N2022      N2024   1.318       .  A
N2022      N2023   1.308       .  A
N2022     Mn2040   2.176   1_455  S
N2023      C2030   1.341       .  A
N2024      N2025   1.335       .  A
N2024     Mn4452   2.255   1_455  S
N2025      C2030   1.366       .  A
N2026      N2027   1.312       .  A
N2026     Mn4464   2.184       .  S
N2027      C2029   1.342       .  A
Mn2028     N4423   2.243       .  S
Mn2028     N4448   2.255       .  S
Mn2028    Cl4465   2.607       .  S
C2029      C2289   1.476       .  S
C2030      C2398   1.490       .  S
N2031      N2032   1.323       .  A
N2031      N2037   1.312       .  A
N2031     Mn2039   2.206   1_455  S
N2032      C2042   1.354       .  A
N2033      N2034   1.321       .  A
N2033      N2035   1.312       .  A
N2033     Mn4464   2.186       .  S
N2034      C2043   1.349       .  A
N2035      N2036   1.325       .  A
N2035     Mn4463   2.219       .  S
N2036      C2043   1.356       .  A
N2037      N2038   1.322       .  A
N2037     Mn2040   2.195   1_455  S
N2038      C2042   1.351       .  A
Mn2039     N4433   2.212       .  S
Mn2039     N4459   2.219       .  S
Mn2039    Cl2041   2.593       .  S
Mn2040     N4450   2.184       .  S
Mn2040     N4457   2.186       .  S
Mn2040    Cl2041   2.473       .  S
Cl2041    Mn4452   2.607       .  S
C2042      C2135   1.490       .  S
C2043      C2118   1.483       .  S
N2044      N2045   1.324       .  A
N2044      N2050   1.311       .  A
N2044     Mn4497   2.225       .  S
N2045      C2052   1.361       .  A
N2046      N2048   1.311       .  A
N2046      N2047   1.321       .  A
N2046     Mn2062   2.187       .  S
N2047      C2053   1.350       .  A
N2048      N2049   1.325       .  A
N2048     Mn2073   2.216       .  S
N2049      C2053   1.358       .  A
N2050      N2051   1.319       .  A
N2050     Mn4486   2.179   1_455  S
N2051      C2052   1.350       .  A
C2052      C2163   1.494       .  S
C2053      C2149   1.496       .  S
N2054      N2060   1.315       .  A
N2054      N2055   1.336       .  A
N2054     Mn2084   2.264       .  S
N2055      C2063   1.372       .  A
N2056      N2057   1.313       .  A
N2056      N2058   1.320       .  A
N2056     Mn4486   2.184   1_455  S
N2057      C2064   1.342       .  A
N2058      N2059   1.328       .  A
N2058     Mn4508   2.233   1_455  S
N2059      C2064   1.359       .  A
N2060      N2061   1.302       .  A
N2060     Mn2062   2.149       .  S
N2061      C2063   1.336       .  A
Mn2062     N4474   2.179       .  S
Mn2062     N4480   2.184       .  S
Mn2062    Cl2086   2.463       .  S
C2063      C2275   1.497       .  S
C2064      C2387   1.473       .  S
N2065      N2066   1.321       .  A
N2065      N2071   1.313       .  A
N2065     Mn2073   2.208       .  S
N2066      C2074   1.354       .  A
N2067      N2069   1.313       .  A
N2067      N2068   1.323       .  A
N2067     Mn4509   2.193   1_455  S
N2068      C2075   1.349       .  A
N2069      N2070   1.323       .  A
N2069     Mn4497   2.214       .  S
N2070      C2075   1.358       .  A
N2071      N2072   1.323       .  A
N2071     Mn2085   2.190       .  S
N2072      C2074   1.353       .  A
Mn2073     N4468   2.225       .  S
Mn2073     N4493   2.214       .  S
Mn2073    Cl2086   2.586       .  S
C2074      C2090   1.495       .  S
C2075      C2104   1.488       .  S
N2076      N2077   1.331       .  A
N2076      N2082   1.321       .  A
N2076     Mn4508   2.256   1_455  S
N2077      C2087   1.364       .  A
N2078      N2079   1.312       .  A
N2078      N2080   1.321       .  A
N2078     Mn2085   2.189       .  S
N2079      C2088   1.342       .  A
N2080      N2081   1.332       .  A
N2080     Mn2084   2.232       .  S
N2081      C2088   1.360       .  A
N2082      N2083   1.310       .  A
N2082     Mn4509   2.174   1_455  S
N2083      C2087   1.339       .  A
Mn2084     N4482   2.233       .  S
Mn2084     N4500   2.256       .  S
Mn2084    Cl2086   2.625       .  S
Mn2085     N4491   2.193       .  S
Mn2085     N4506   2.174       .  S
Mn2085    Cl2086   2.469       .  S
C2087      C2373   1.476       .  S
C2088      C2258   1.480       .  S
C2089      C2090   1.406       .  A
C2089      C2094   1.410       .  A
C2089      H2096   1.083       .  S
C2090      C2091   1.413       .  A
C2091      C2092   1.410       .  A
C2091      N2098   1.437       .  S
C2092      C2093   1.406       .  A
C2092      H2097   1.082       .  S
C2093      C2094   1.417       .  A
C2094      N2095   1.438       .  S
N2095      H2099   1.046       .  S
N2095      H2100   1.045       .  S
N2098      H2101   1.043       .  S
N2098      H2102   1.043   1_565  S
C2103      C2104   1.399       .  A
C2103      C2108   1.414       .  A
C2103      H2110   1.084       .  S
C2104      C2105   1.402       .  A
C2105      C2106   1.404       .  A
C2105      N2112   1.419       .  S
C2106      C2107   1.397       .  A
C2106      H2111   1.084       .  S
C2107      C2108   1.419       .  A
C2108      N2109   1.433       .  S
N2109      H2113   1.045       .  S
N2109      H2114   1.045       .  S
N2112      H2115   1.046       .  S
N2112      H2116   1.037       .  S
C2117      C2118   1.404       .  A
C2117      C2122   1.411       .  A
C2117      H2124   1.083       .  S
C2118      C2119   1.421       .  A
C2119      C2120   1.404       .  A
C2119      N2126   1.439       .  S
C2120      C2121   1.397       .  A
C2120      H2125   1.082       .  S
C2121      C2122   1.410       .  A
C2122      N2123   1.438       .  S
N2123      H2127   1.046       .  S
N2123      H2128   1.041       .  S
N2126      H2129   1.042       .  S
N2126      H2130   1.045       .  S
C2131      C2132   1.404       .  A
C2131      C2136   1.406       .  A
C2131      H2138   1.084       .  S
C2132      C2133   1.414       .  A
C2133      C2134   1.399       .  A
C2133      N2140   1.423       .  S
C2134      C2135   1.400       .  A
C2134      H2139   1.084       .  S
C2135      C2136   1.421       .  A
C2136      N2137   1.432       .  S
N2137      H2141   1.044       .  S
N2137      H2142   1.045       .  S
N2140      H2143   1.045       .  S
N2140      H2144   1.042       .  S
C2145      C2146   1.406       .  A
C2145      C2150   1.409       .  A
C2145      H2152   1.084       .  S
C2146      C2147   1.417       .  A
C2147      C2148   1.410       .  A
C2147      N2154   1.431       .  S
C2148      C2149   1.401       .  A
C2148      H2153   1.082       .  S
C2149      C2150   1.416       .  A
C2150      N2151   1.432       .  S
N2151      H2155   1.046       .  S
N2151      H2156   1.046       .  S
N2154      H2157   1.035   1_565  S
N2154      H2158   1.043   1_565  S
C2159      C2160   1.406       .  A
C2159      C2164   1.411       .  A
C2159      H2166   1.083       .  S
C2160      C2161   1.415       .  A
C2161      C2162   1.408       .  A
C2161      N2168   1.436       .  S
C2162      C2163   1.400       .  A
C2162      H2167   1.084       .  S
C2163      C2164   1.418       .  A
C2164      N2165   1.438       .  S
N2165      H2169   1.046       .  S
N2165      H2170   1.046       .  S
N2168      H2171   1.044       .  S
N2168      H2172   1.046   1_565  S
C2173      C2174   1.405       .  A
C2173      C2178   1.410       .  A
C2173      H2180   1.082       .  S
C2174      C2175   1.416       .  A
C2175      C2176   1.408       .  A
C2175      N2182   1.438       .  S
C2176      C2177   1.406       .  A
C2176      H2181   1.084       .  S
C2177      C2178   1.402       .  A
C2178      N2179   1.434       .  S
N2179      H2183   1.044       .  S
N2179      H2184   1.045       .  S
N2182      H2185   1.044       .  S
N2182      H2186   1.046       .  S
C2187      C2188   1.401       .  A
C2187      C2192   1.411       .  A
C2187      H2194   1.084       .  S
C2188      C2189   1.414       .  A
C2189      C2190   1.413       .  A
C2189      N2196   1.438       .  S
C2190      C2191   1.402       .  A
C2190      H2195   1.084       .  S
C2191      C2192   1.412       .  A
C2192      N2193   1.436       .  S
N2193      H2197   1.045       .  S
N2193      H2198   1.043       .  S
N2196      H2199   1.045       .  S
N2196      H2200   1.046       .  S
C2201      C2202   1.401       .  A
C2201      C2206   1.395       .  A
C2201      H2208   1.085       .  S
C2202      C2203   1.421       .  A
C2203      C2204   1.411       .  A
C2203      N2210   1.438       .  S
C2204      C2205   1.406       .  A
C2204      H2209   1.084       .  S
C2205      C2206   1.416       .  A
C2206      N2207   1.439       .  S
N2207      H2211   1.046       .  S
N2207      H2212   1.044       .  S
N2210      H2213   1.042       .  S
N2210      H2214   1.046       .  S
C2215      C2216   1.404       .  A
C2215      C2220   1.392       .  A
C2215      H2222   1.085       .  S
C2216      C2217   1.412       .  A
C2217      C2218   1.415       .  A
C2217      N2224   1.436       .  S
C2218      C2219   1.409       .  A
C2218      H2223   1.084       .  S
C2219      C2220   1.410       .  A
C2220      N2221   1.440       .  S
N2221      H2225   1.046       .  S
N2221      H2226   1.044       .  S
N2224      H2227   1.045       .  S
N2224      H2228   1.046       .  S
C2229      C2230   1.413       .  A
C2229      C2234   1.395       .  A
C2229      H2236   1.082       .  S
C2230      C2231   1.407       .  A
C2231      C2232   1.412       .  A
C2231      N2238   1.435       .  S
C2232      C2233   1.410       .  A
C2232      H2237   1.084       .  S
C2233      C2234   1.399       .  A
C2234      N2235   1.440       .  S
N2235      H2239   1.046       .  S
N2235      H2240   1.046       .  S
N2238      H2241   1.045       .  S
N2238      H2242   1.043       .  S
C2243      C2244   1.407       .  A
C2243      C2248   1.412       .  A
C2243      H2250   1.084       .  S
C2244      C2245   1.411       .  A
C2245      C2246   1.393       .  A
C2245      N2252   1.440       .  S
C2246      C2247   1.403       .  A
C2246      H2251   1.085       .  S
C2247      C2248   1.411       .  A
C2248      N2249   1.437       .  S
N2249      H2253   1.046       .  S
N2249      H2254   1.045       .  S
N2252      H2255   1.044       .  S
N2252      H2256   1.046       .  S
C2257      C2258   1.396       .  A
C2257      C2262   1.401       .  A
C2257      H2264   1.085       .  S
C2258      C2259   1.413       .  A
C2259      C2260   1.418       .  A
C2259      N2266   1.436       .  S
C2260      C2261   1.410       .  A
C2260      H2265   1.083       .  S
C2261      C2262   1.424       .  A
C2262      N2263   1.438       .  S
N2263      H2267   1.046       .  S
N2263      H2268   1.046       .  S
N2266      H2269   1.045       .  S
N2266      H2270   1.046       .  S
C2271      C2272   1.410       .  A
C2271      C2276   1.416       .  A
C2271      H2278   1.079       .  S
C2272      C2273   1.413       .  A
C2273      C2274   1.391       .  A
C2273      N2280   1.443       .  S
C2274      C2275   1.410       .  A
C2274      H2279   1.084       .  S
C2275      C2276   1.410       .  A
C2276      N2277   1.433       .  S
N2277      H2281   1.046       .  S
N2277      H2282   1.043       .  S
N2280      H2283   1.042       .  S
N2280      H2284   1.046       .  S
C2285      C2286   1.396       .  A
C2285      C2290   1.405       .  A
C2285      H2292   1.084       .  S
C2286      C2287   1.423       .  A
C2287      C2288   1.405       .  A
C2287      N2294   1.432       .  S
C2288      C2289   1.398       .  A
C2288      H2293   1.084       .  S
C2289      C2290   1.412       .  A
C2290      N2291   1.433       .  S
N2291      H2295   1.043       .  S
N2291      H2296   1.044       .  S
N2294      H2297   1.046       .  S
N2294      H2298   1.043       .  S
C2299      C2300   1.401       .  A
C2299      C2304   1.403       .  A
C2299      H2306   1.084       .  S
C2300      C2301   1.406       .  A
C2301      C2302   1.417       .  A
C2301      N2308   1.434       .  S
C2302      C2303   1.411       .  A
C2302      H2307   1.082       .  S
C2303      C2304   1.420       .  A
C2304      N2305   1.439       .  S
N2305      H2309   1.046       .  S
N2305      H2310   1.046       .  S
N2308      H2311   1.044       .  S
N2308      H2312   1.044       .  S
C2313      C2314   1.406       .  A
C2313      C2318   1.392       .  A
C2313      H2320   1.084       .  S
C2314      C2315   1.414       .  A
C2315      C2316   1.416       .  A
C2315      N2322   1.437       .  S
C2316      C2317   1.408       .  A
C2316      H2321   1.083       .  S
C2317      C2318   1.397       .  A
C2318      N2319   1.435       .  S
N2319      H2323   1.046       .  S
N2319      H2324   1.046       .  S
N2322      H2325   1.046       .  S
N2322      H2326   1.045       .  S
C2327      C2328   1.404       .  A
C2327      C2332   1.391       .  A
C2327      H2334   1.086       .  S
C2328      C2329   1.423       .  A
C2329      C2330   1.409       .  A
C2329      N2336   1.438       .  S
C2330      C2331   1.405       .  A
C2330      H2335   1.083       .  S
C2331      C2332   1.409       .  A
C2332      N2333   1.440       .  S
N2333      H2337   1.046       .  S
N2333      H2338   1.044       .  S
N2336      H2339   1.040       .  S
C2341      C2342   1.412       .  A
C2341      C2346   1.406       .  A
C2341      H2348   1.084       .  S
C2342      C2343   1.402       .  A
C2343      C2344   1.405       .  A
C2343      N2350   1.437       .  S
C2344      C2345   1.413       .  A
C2344      H2349   1.084       .  S
C2345      C2346   1.403       .  A
C2346      N2347   1.437       .  S
N2347      H2352   1.045       .  S
N2350      H2353   1.046       .  S
N2350      H2354   1.046       .  S
C2355      C2356   1.408       .  A
C2355      C2360   1.395       .  A
C2355      H2362   1.082       .  S
C2356      C2357   1.412       .  A
C2357      C2358   1.416       .  A
C2357      N2364   1.437       .  S
C2358      C2359   1.410       .  A
C2358      H2363   1.084       .  S
C2359      C2360   1.403       .  A
C2360      N2361   1.441       .  S
N2361      H2365   1.046       .  S
N2361      H2366   1.045       .  S
N2364      H2367   1.045       .  S
N2364      H2368   1.046       .  S
C2369      C2370   1.408       .  A
C2369      C2374   1.413       .  A
C2369      H2376   1.084       .  S
C2370      C2371   1.403       .  A
C2371      C2372   1.404       .  A
C2371      N2378   1.436       .  S
C2372      C2373   1.407       .  A
C2372      H2377   1.084       .  S
C2373      C2374   1.407       .  A
C2374      N2375   1.436       .  S
N2375      H2379   1.046       .  S
N2375      H2380   1.046       .  S
N2378      H2381   1.045       .  S
N2378      H2382   1.044   1_455  S
C2383      C2384   1.406       .  A
C2383      C2388   1.409       .  A
C2383      H2390   1.083       .  S
C2384      C2385   1.419       .  A
C2385      C2386   1.405       .  A
C2385      N2392   1.438       .  S
C2386      C2387   1.400       .  A
C2386      H2391   1.084       .  S
C2387      C2388   1.412       .  A
C2388      N2389   1.438       .  S
N2389      H2393   1.045       .  S
N2389      H2394   1.046       .  S
N2392      H2395   1.046       .  S
N2392      H2396   1.046       .  S
C2397      C2398   1.401       .  A
C2397      C2402   1.400       .  A
C2397      H2404   1.082       .  S
C2398      C2399   1.411       .  A
C2399      C2400   1.421       .  A
C2399      N2406   1.435       .  S
C2400      C2401   1.412       .  A
C2400      H2405   1.083       .  S
C2401      C2402   1.416       .  A
C2402      N2403   1.439       .  S
N2403      H2407   1.046       .  S
N2403      H2408   1.046       .  S
N2406      H2409   1.045       .  S
N2406      H2410   1.044       .  S
C2411      C2412   1.398       .  A
C2411      C2416   1.407       .  A
C2411      H2418   1.084       .  S
C2412      C2413   1.409       .  A
C2413      C2414   1.410       .  A
C2413      N2420   1.431       .  S
C2414      C2415   1.401       .  A
C2414      H2419   1.084       .  S
C2415      C2416   1.420       .  A
C2416      N2417   1.437       .  S
N2417      H2421   1.046       .  S
N2417      H2422   1.046       .  S
N2420      H2423   1.046       .  S
N2420      H2424   1.042       .  S
N2425      N2426   1.335       .  A
N2425      N2431   1.320       .  A
N2425     Mn3060   2.255       .  S
N2426      C2433   1.366       .  A
N2427      N2429   1.319       .  A
N2427      N2428   1.308       .  A
N2427     Mn3049   2.162       .  S
N2428      C2434   1.337       .  A
N2429      N2430   1.329       .  A
N2429     Mn2454   2.230       .  S
N2430      C2434   1.360       .  A
N2431      N2432   1.304       .  A
N2431     Mn2443   2.152       .  S
N2432      C2433   1.334       .  A
C2433      C2962   1.484       .  S
C2434      C2937   1.464       .  S
N2435      N2441   1.311       .  A
N2435      N2436   1.331       .  A
N2435     Mn3071   2.223       .  S
N2436      C2444   1.358       .  A
N2437      N2438   1.317       .  A
N2437      N2439   1.310       .  A
N2437     Mn2443   2.165       .  S
N2438      C2445   1.345       .  A
N2439      N2440   1.327       .  A
N2439     Mn2465   2.217       .  S
N2440      C2445   1.358       .  A
N2441      N2442   1.315       .  A
N2441     Mn3049   2.167       .  S
N2442      C2444   1.345       .  A
Mn2443     N3033   2.162   1_554  S
Mn2443     N3047   2.167   1_554  S
Mn2443    Cl2467   2.446       .  S
C2444      C3007   1.497       .  S
C2445      C3021   1.493       .  S
N2446      N2447   1.333       .  A
N2446      N2452   1.319       .  A
N2446     Mn2454   2.246       .  S
N2447      C2455   1.364       .  A
N2448      N2450   1.323       .  A
N2448      N2449   1.311       .  A
N2448     Mn3072   2.180       .  S
N2449      C2456   1.339       .  A
N2450      N2451   1.330       .  A
N2450     Mn3060   2.234       .  S
N2451      C2456   1.360       .  A
N2452      N2453   1.303       .  A
N2452     Mn2466   2.147       .  S
N2453      C2455   1.333       .  A
Mn2454     N3031   2.255       .  S
Mn2454     N3056   2.234       .  S
Mn2454    Cl3073   2.612       .  S
C2455      C2920   1.478       .  S
C2456      C2948   1.478       .  S
N2457      N2458   1.325       .  A
N2457      N2463   1.312       .  A
N2457     Mn2465   2.205       .  S
N2458      C2468   1.355       .  A
N2459      N2460   1.322       .  A
N2459      N2461   1.310       .  A
N2459     Mn2466   2.184       .  S
N2460      C2469   1.349       .  A
N2461      N2462   1.323       .  A
N2461     Mn3071   2.194       .  S
N2462      C2469   1.352       .  A
N2463      N2464   1.318       .  A
N2463     Mn3072   2.185       .  S
N2464      C2468   1.349       .  A
Mn2465     N3041   2.223   1_554  S
Mn2465     N3067   2.195   1_554  S
Mn2465    Cl2467   2.602       .  S
Mn2466     N3054   2.180       .  S
Mn2466     N3069   2.185       .  S
Mn2466    Cl3073   2.437       .  S
Cl2467    Mn3060   2.612       .  S
Cl2467    Mn3072   2.437       .  S
C2468      C2990   1.491       .  S
C2469      C2976   1.480       .  S
N2470      N2471   1.330       .  A
N2470      N2476   1.311       .  A
N2470     Mn2499   2.222       .  S
N2471      C2478   1.361       .  A
N2472      N2474   1.311       .  A
N2472      N2473   1.319       .  A
N2472     Mn3094   2.171       .  S
N2473      C2479   1.345       .  A
N2474      N2475   1.326       .  A
N2474     Mn3105   2.211       .  S
N2475      C2479   1.354       .  A
N2476      N2477   1.316       .  A
N2476     Mn2488   2.178       .  S
N2477      C2478   1.347       .  A
C2478      C2909   1.500       .  S
C2479      C2892   1.484       .  S
N2480      N2486   1.320       .  A
N2480      N2481   1.331       .  A
N2480     Mn3116   2.246       .  S
N2481      C2489   1.363       .  A
N2482      N2483   1.307       .  A
N2482      N2484   1.321       .  A
N2482     Mn2488   2.156       .  S
N2483      C2490   1.334       .  A
N2484      N2485   1.331       .  A
N2484     Mn2510   2.243   1_554  S
N2485      C2490   1.362       .  A
N2486      N2487   1.306       .  A
N2486     Mn3094   2.154       .  S
N2487      C2489   1.335       .  A
Mn2488     N3078   2.171   1_554  S
Mn2488     N3092   2.154   1_554  S
Mn2488    Cl2512   2.442       .  S
C2489      C2853   1.471       .  S
C2490      C2825   1.464       .  S
N2491      N2492   1.333       .  A
N2491      N2497   1.310       .  A
N2491     Mn3105   2.237       .  S
N2492      C2500   1.361       .  A
N2493      N2495   1.311       .  A
N2493      N2494   1.313       .  A
N2493     Mn2511   2.151       .  S
N2494      C2501   1.343       .  A
N2495      N2496   1.329       .  A
N2495     Mn2499   2.222       .  S
N2496      C2501   1.359       .  A
N2497      N2498   1.314       .  A
N2497     Mn3117   2.156       .  S
N2498      C2500   1.341       .  A
Mn2499     N3080   2.211   1_554  S
Mn2499     N3097   2.237   1_554  S
Mn2499    Cl2512   2.597       .  S
C2500      C2867   1.503       .  S
C2501      C2878   1.480       .  S
N2502      N2503   1.332       .  A
N2502      N2508   1.319       .  A
N2502     Mn2510   2.244   1_554  S
N2503      C2513   1.364       .  A
N2504      N2505   1.303       .  A
N2504      N2506   1.318       .  A
N2504     Mn3117   2.146       .  S
N2505      C2514   1.333       .  A
N2506      N2507   1.333       .  A
N2506     Mn3116   2.249       .  S
N2507      C2514   1.367       .  A
N2508      N2509   1.309       .  A
N2508     Mn2511   2.163       .  S
N2509      C2513   1.336       .  A
Mn2510     N3086   2.246       .  S
Mn2510     N3112   2.249       .  S
Mn2510    Cl2512   2.615   1_556  S
Mn2511     N3103   2.156   1_554  S
Mn2511     N3110   2.146   1_554  S
Mn2511    Cl2512   2.444       .  S
C2513      C2808   1.474       .  S
C2514      C2836   1.484       .  S
N2515      N2516   1.330       .  A
N2515      N2521   1.320       .  A
N2515     Mn2544   2.240       .  S
N2516      C2523   1.361       .  A
N2517      N2519   1.319       .  A
N2517      N2518   1.305       .  A
N2517     Mn2533   2.151       .  S
N2518      C2524   1.334       .  A
N2519      N2520   1.333       .  A
N2519     Mn2544   2.248       .  S
N2520      C2524   1.365       .  A
N2521      N2522   1.308       .  A
N2521     Mn2533   2.157       .  S
N2522      C2523   1.335       .  A
C2523      C2965   1.465       .  S
C2524      C2822   1.477       .  S
N2525      N2531   1.311       .  A
N2525      N2526   1.323       .  A
N2525     Mn3767   2.215       .  S
N2526      C2534   1.356       .  A
N2527      N2528   1.323       .  A
N2527      N2529   1.312       .  A
N2527     Mn2533   2.190       .  S
N2528      C2535   1.350       .  A
N2529      N2530   1.325       .  A
N2529     Mn3767   2.217       .  S
N2530      C2535   1.355       .  A
N2531      N2532   1.322       .  A
N2531     Mn2533   2.179       .  S
N2532      C2534   1.347       .  A
Mn2533    Cl3769   2.456       .  S
C2534      C2783   1.483       .  S
C2535      C2794   1.484       .  S
N2536      N2537   1.331       .  A
N2536      N2542   1.321       .  A
N2536     Mn3756   2.251       .  S
N2537      C2545   1.363       .  A
N2538      N2540   1.322       .  A
N2538      N2539   1.311       .  A
N2538     Mn2556   2.174       .  S
N2539      C2546   1.339       .  A
N2540      N2541   1.330       .  A
N2540     Mn3756   2.240       .  S
N2541      C2546   1.360       .  A
N2542      N2543   1.310       .  A
N2542     Mn2556   2.166       .  S
N2543      C2545   1.338       .  A
Mn2544     N3748   2.251   1_545  S
Mn2544     N3752   2.240   1_545  S
Mn2544    Cl3769   2.619       .  S
C2545      C2811   1.477       .  S
C2546      C2951   1.482       .  S
N2547      N2548   1.321       .  A
N2547      N2553   1.313       .  A
N2547     Mn2555   2.204       .  S
N2548      C2558   1.353       .  A
N2549      N2550   1.322       .  A
N2549      N2551   1.312       .  A
N2549     Mn2556   2.195       .  S
N2550      C2559   1.352       .  A
N2551      N2552   1.324       .  A
N2551     Mn2555   2.215       .  S
N2552      C2559   1.357       .  A
N2553      N2554   1.323       .  A
N2553     Mn2556   2.195       .  S
N2554      C2558   1.352       .  A
Mn2555     N3737   2.215       .  S
Mn2555     N3741   2.217       .  S
Mn2555    Cl2557   2.590       .  S
Mn2556    Cl2557   2.466       .  S
Cl2557    Mn3745   2.456       .  S
Cl2557    Mn3756   2.619       .  S
C2558      C2766   1.495       .  S
C2559      C2752   1.502       .  S
N2560      N2561   1.325       .  A
N2560      N2566   1.312       .  A
N2560     Mn2589   2.226   1_545  S
N2561      C2568   1.359       .  A
N2562      N2564   1.313       .  A
N2562      N2563   1.320       .  A
N2562     Mn2578   2.171       .  S
N2563      C2569   1.344       .  A
N2564      N2565   1.326       .  A
N2564     Mn2589   2.227   1_545  S
N2565      C2569   1.357       .  A
N2566      N2567   1.322       .  A
N2566     Mn2578   2.181       .  S
N2567      C2568   1.350       .  A
C2568      C2738   1.494       .  S
C2569      C2727   1.480       .  S
N2570      N2576   1.319       .  A
N2570      N2571   1.328       .  A
N2570     Mn2600   2.227       .  S
N2571      C2579   1.359       .  A
N2572      N2573   1.306       .  A
N2572      N2574   1.320       .  A
N2572     Mn2578   2.157       .  S
N2573      C2580   1.337       .  A
N2574      N2575   1.330       .  A
N2574     Mn2600   2.239       .  S
N2575      C2580   1.362       .  A
N2576      N2577   1.308       .  A
N2576     Mn2578   2.162       .  S
N2577      C2579   1.337       .  A
Mn2578    Cl2602   2.476       .  S
C2579      C2850   1.462       .  S
C2580      C2934   1.475       .  S
N2581      N2582   1.326       .  A
N2581      N2587   1.311       .  A
N2581     Mn3801   2.215       .  S
N2582      C2590   1.359       .  A
N2583      N2585   1.313       .  A
N2583      N2584   1.319       .  A
N2583     Mn2601   2.179       .  S
N2584      C2591   1.348       .  A
N2585      N2586   1.325       .  A
N2585     Mn3801   2.227       .  S
N2586      C2591   1.359       .  A
N2587      N2588   1.320       .  A
N2587     Mn2601   2.189       .  S
N2588      C2590   1.351       .  A
Mn2589     N3793   2.214       .  S
Mn2589     N3797   2.226       .  S
Mn2589    Cl2602   2.585   1_565  S
C2590      C2699   1.498       .  S
C2591      C2713   1.489       .  S
N2592      N2593   1.329       .  A
N2592      N2598   1.320       .  A
N2592     Mn3812   2.224       .  S
N2593      C2603   1.357       .  A
N2594      N2595   1.307       .  A
N2594      N2596   1.320       .  A
N2594     Mn2601   2.149       .  S
N2595      C2604   1.334       .  A
N2596      N2597   1.329       .  A
N2596     Mn3812   2.236       .  S
N2597      C2604   1.359       .  A
N2598      N2599   1.310       .  A
N2598     Mn2601   2.173       .  S
N2599      C2603   1.338       .  A
Mn2600     N3804   2.225   1_545  S
Mn2600     N3808   2.236   1_545  S
Mn2600    Cl2602   2.601       .  S
Mn2601    Cl3814   2.470       .  S
Cl2602    Mn3813   2.470   1_545  S
C2603      C2923   1.463       .  S
C2604      C2839   1.458       .  S
N2605      N2606   1.329       .  A
N2605      N2611   1.321       .  A
N2606      C2613   1.361       .  A
N2607      N2609   1.320       .  A
N2607      N2608   1.310       .  A
N2608      C2614   1.340       .  A
N2609      N2610   1.331       .  A
N2609     Mn2634   2.255       .  S
N2610      C2614   1.365       .  A
N2611      N2612   1.313       .  A
N2611     Mn2623   2.188       .  S
N2612      C2613   1.342       .  A
C2613      C3018   1.477       .  S
C2614      C2906   1.483       .  S
N2615      N2621   1.313       .  A
N2615      N2616   1.325       .  A
N2616      C2624   1.355       .  A
N2617      N2618   1.322       .  A
N2617      N2619   1.313       .  A
N2617     Mn2623   2.190       .  S
N2618      C2625   1.350       .  A
N2619      N2620   1.326       .  A
N2619     Mn2645   2.228       .  S
N2620      C2625   1.357       .  A
N2621      N2622   1.322       .  A
N2622      C2624   1.350       .  A
Mn2623    Cl2647   2.481       .  S
C2624      C2780   1.484       .  S
C2625      C2797   1.485       .  S
N2626      N2627   1.329       .  A
N2626      N2632   1.320       .  A
N2626     Mn2634   2.244       .  S
N2627      C2635   1.362       .  A
N2628      N2630   1.318       .  A
N2628      N2629   1.308       .  A
N2628     Mn2646   2.176       .  S
N2629      C2636   1.341       .  A
N2630      N2631   1.335       .  A
N2631      C2636   1.366       .  A
N2632      N2633   1.312       .  A
N2633      C2635   1.342       .  A
C2635      C2895   1.476       .  S
C2636      C3004   1.490       .  S
N2637      N2638   1.323       .  A
N2637      N2643   1.312       .  A
N2637     Mn2645   2.206       .  S
N2638      C2648   1.354       .  A
N2639      N2640   1.321       .  A
N2639      N2641   1.312       .  A
N2640      C2649   1.349       .  A
N2641      N2642   1.325       .  A
N2642      C2649   1.356       .  A
N2643      N2644   1.322       .  A
N2643     Mn2646   2.195       .  S
N2644      C2648   1.351       .  A
Mn2645    Cl2647   2.593       .  S
Mn2646    Cl2647   2.473       .  S
C2648      C2741   1.490       .  S
C2649      C2724   1.483       .  S
N2650      N2651   1.324       .  A
N2650      N2656   1.311       .  A
N2651      C2658   1.361       .  A
N2652      N2654   1.311       .  A
N2652      N2653   1.321       .  A
N2652     Mn2668   2.187       .  S
N2653      C2659   1.350       .  A
N2654      N2655   1.325       .  A
N2654     Mn2679   2.216   1_655  S
N2655      C2659   1.358       .  A
N2656      N2657   1.319       .  A
N2657      C2658   1.350       .  A
C2658      C2769   1.494       .  S
C2659      C2755   1.496       .  S
N2660      N2666   1.315       .  A
N2660      N2661   1.336       .  A
N2660     Mn2690   2.264       .  S
N2661      C2669   1.372       .  A
N2662      N2663   1.313       .  A
N2662      N2664   1.320       .  A
N2663      C2670   1.342       .  A
N2664      N2665   1.328       .  A
N2665      C2670   1.359       .  A
N2666      N2667   1.302       .  A
N2666     Mn2668   2.149       .  S
N2667      C2669   1.336       .  A
Mn2668    Cl2692   2.463       .  S
C2669      C2881   1.497       .  S
C2670      C2993   1.473       .  S
N2671      N2672   1.321       .  A
N2671      N2677   1.313       .  A
N2671     Mn2679   2.208   1_655  S
N2672      C2680   1.354       .  A
N2673      N2675   1.313       .  A
N2673      N2674   1.323       .  A
N2674      C2681   1.349       .  A
N2675      N2676   1.323       .  A
N2676      C2681   1.358       .  A
N2677      N2678   1.323       .  A
N2677     Mn2691   2.190       .  S
N2678      C2680   1.353       .  A
Mn2679    Cl2692   2.586   1_455  S
C2680      C2696   1.495       .  S
C2681      C2710   1.488       .  S
N2682      N2683   1.331       .  A
N2682      N2688   1.321       .  A
N2683      C2693   1.364       .  A
N2684      N2685   1.312       .  A
N2684      N2686   1.320       .  A
N2684     Mn2691   2.189       .  S
N2685      C2694   1.342       .  A
N2686      N2687   1.332       .  A
N2686     Mn2690   2.232       .  S
N2687      C2694   1.360       .  A
N2688      N2689   1.310       .  A
N2689      C2693   1.339       .  A
Mn2690    Cl2692   2.625       .  S
Mn2691    Cl2692   2.469       .  S
C2693      C2979   1.476       .  S
C2694      C2864   1.480       .  S
C2695      C2696   1.406       .  A
C2695      C2700   1.410       .  A
C2695      H2702   1.083       .  S
C2696      C2697   1.413       .  A
C2697      C2698   1.410       .  A
C2697      N2704   1.437       .  S
C2698      C2699   1.406       .  A
C2698      H2703   1.082       .  S
C2699      C2700   1.417       .  A
C2700      N2701   1.438       .  S
N2701      H2705   1.046       .  S
N2701      H2706   1.045       .  S
N2704      H2707   1.043       .  S
N2704      H2708   1.043       .  S
C2709      C2710   1.399       .  A
C2709      C2714   1.414       .  A
C2709      H2716   1.084       .  S
C2710      C2711   1.402       .  A
C2711      C2712   1.404       .  A
C2711      N2718   1.419       .  S
C2712      C2713   1.397       .  A
C2712      H2717   1.084       .  S
C2713      C2714   1.419       .  A
C2714      N2715   1.433       .  S
N2715      H2719   1.045       .  S
N2715      H2720   1.045       .  S
N2718      H2721   1.046       .  S
N2718      H2722   1.037       .  S
C2723      C2724   1.404       .  A
C2723      C2728   1.411       .  A
C2723      H2730   1.083       .  S
C2724      C2725   1.421       .  A
C2725      C2726   1.404       .  A
C2725      N2732   1.439       .  S
C2726      C2727   1.397       .  A
C2726      H2731   1.082       .  S
C2727      C2728   1.410       .  A
C2728      N2729   1.438       .  S
N2729      H2733   1.046   1_545  S
N2729      H2734   1.041       .  S
N2732      H2735   1.042       .  S
N2732      H2736   1.045       .  S
C2737      C2738   1.404       .  A
C2737      C2742   1.406       .  A
C2737      H2744   1.084       .  S
C2738      C2739   1.414       .  A
C2739      C2740   1.399       .  A
C2739      N2746   1.423       .  S
C2740      C2741   1.400       .  A
C2740      H2745   1.084       .  S
C2741      C2742   1.421       .  A
C2742      N2743   1.432       .  S
N2743      H2747   1.044       .  S
N2743      H2748   1.045       .  S
N2746      H2749   1.045   1_545  S
N2746      H2750   1.042   1_545  S
C2751      C2752   1.406       .  A
C2751      C2756   1.409       .  A
C2751      H2758   1.084       .  S
C2752      C2753   1.417       .  A
C2753      C2754   1.410       .  A
C2753      N2760   1.431       .  S
C2754      C2755   1.401       .  A
C2754      H2759   1.082       .  S
C2755      C2756   1.416       .  A
C2756      N2757   1.432       .  S
N2757      H2761   1.046       .  S
N2757      H2762   1.046       .  S
N2760      H2763   1.036       .  S
N2760      H2764   1.043       .  S
C2765      C2766   1.406       .  A
C2765      C2770   1.411       .  A
C2765      H2772   1.083       .  S
C2766      C2767   1.415       .  A
C2767      C2768   1.408       .  A
C2767      N2774   1.436       .  S
C2768      C2769   1.400       .  A
C2768      H2773   1.084       .  S
C2769      C2770   1.418       .  A
C2770      N2771   1.438       .  S
N2771      H2775   1.046       .  S
N2771      H2776   1.046       .  S
N2774      H2777   1.044       .  S
N2774      H2778   1.046       .  S
C2779      C2780   1.405       .  A
C2779      C2784   1.410       .  A
C2779      H2786   1.082       .  S
C2780      C2781   1.416       .  A
C2781      C2782   1.408       .  A
C2781      N2788   1.438       .  S
C2782      C2783   1.406       .  A
C2782      H2787   1.084       .  S
C2783      C2784   1.402       .  A
C2784      N2785   1.434       .  S
N2785      H2789   1.044       .  S
N2785      H2790   1.045       .  S
N2788      H2791   1.044       .  S
N2788      H2792   1.046       .  S
C2793      C2794   1.401       .  A
C2793      C2798   1.411       .  A
C2793      H2800   1.084       .  S
C2794      C2795   1.414       .  A
C2795      C2796   1.413       .  A
C2795      N2802   1.438       .  S
C2796      C2797   1.402       .  A
C2796      H2801   1.084       .  S
C2797      C2798   1.412       .  A
C2798      N2799   1.436       .  S
N2799      H2803   1.045       .  S
N2799      H2804   1.043       .  S
N2802      H2805   1.045       .  S
N2802      H2806   1.046       .  S
C2807      C2808   1.401       .  A
C2807      C2812   1.395       .  A
C2807      H2814   1.085       .  S
C2808      C2809   1.421       .  A
C2809      C2810   1.411       .  A
C2809      N2816   1.438       .  S
C2810      C2811   1.406       .  A
C2810      H2815   1.084       .  S
C2811      C2812   1.416       .  A
C2812      N2813   1.439       .  S
N2813      H2817   1.046       .  S
N2813      H2818   1.044       .  S
N2816      H2819   1.042       .  S
N2816      H2820   1.046       .  S
C2821      C2822   1.404       .  A
C2821      C2826   1.392       .  A
C2821      H2828   1.085       .  S
C2822      C2823   1.412       .  A
C2823      C2824   1.415       .  A
C2823      N2830   1.436       .  S
C2824      C2825   1.409       .  A
C2824      H2829   1.084       .  S
C2825      C2826   1.410       .  A
C2826      N2827   1.440       .  S
N2827      H2831   1.046       .  S
N2827      H2832   1.044       .  S
N2830      H2833   1.045       .  S
N2830      H2834   1.046       .  S
C2835      C2836   1.413       .  A
C2835      C2840   1.395       .  A
C2835      H2842   1.082       .  S
C2836      C2837   1.407       .  A
C2837      C2838   1.412       .  A
C2837      N2844   1.435       .  S
C2838      C2839   1.410       .  A
C2838      H2843   1.084       .  S
C2839      C2840   1.399       .  A
C2840      N2841   1.440       .  S
N2841      H2845   1.046       .  S
N2841      H2846   1.046       .  S
N2844      H2847   1.045       .  S
N2844      H2848   1.043       .  S
C2849      C2850   1.407       .  A
C2849      C2854   1.412       .  A
C2849      H2856   1.084       .  S
C2850      C2851   1.411       .  A
C2851      C2852   1.393       .  A
C2851      N2858   1.440       .  S
C2852      C2853   1.403       .  A
C2852      H2857   1.085       .  S
C2853      C2854   1.411       .  A
C2854      N2855   1.437       .  S
N2855      H2859   1.046       .  S
N2855      H2860   1.045       .  S
N2858      H2861   1.044       .  S
N2858      H2862   1.046       .  S
C2863      C2864   1.396       .  A
C2863      C2868   1.401       .  A
C2863      H2870   1.085       .  S
C2864      C2865   1.413       .  A
C2865      C2866   1.418       .  A
C2865      N2872   1.436       .  S
C2866      C2867   1.410       .  A
C2866      H2871   1.083       .  S
C2867      C2868   1.424       .  A
C2868      N2869   1.438       .  S
N2869      H2873   1.046       .  S
N2869      H2874   1.046       .  S
N2872      H2875   1.045       .  S
N2872      H2876   1.046       .  S
C2877      C2878   1.410       .  A
C2877      C2882   1.416       .  A
C2877      H2884   1.079       .  S
C2878      C2879   1.413       .  A
C2879      C2880   1.391       .  A
C2879      N2886   1.443       .  S
C2880      C2881   1.410       .  A
C2880      H2885   1.084       .  S
C2881      C2882   1.410       .  A
C2882      N2883   1.433       .  S
N2883      H2887   1.046       .  S
N2883      H2888   1.043       .  S
N2886      H2889   1.042       .  S
N2886      H2890   1.046       .  S
C2891      C2892   1.396       .  A
C2891      C2896   1.405       .  A
C2891      H2898   1.084       .  S
C2892      C2893   1.423       .  A
C2893      C2894   1.405       .  A
C2893      N2900   1.432       .  S
C2894      C2895   1.398       .  A
C2894      H2899   1.084       .  S
C2895      C2896   1.412       .  A
C2896      N2897   1.433       .  S
N2897      H2901   1.043   1_655  S
N2897      H2902   1.044       .  S
N2900      H2903   1.046       .  S
N2900      H2904   1.043       .  S
C2905      C2906   1.401       .  A
C2905      C2910   1.403       .  A
C2905      H2912   1.084       .  S
C2906      C2907   1.406       .  A
C2907      C2908   1.417       .  A
C2907      N2914   1.434       .  S
C2908      C2909   1.410       .  A
C2908      H2913   1.082       .  S
C2909      C2910   1.420       .  A
C2910      N2911   1.439       .  S
N2911      H2915   1.046       .  S
N2911      H2916   1.046       .  S
N2914      H2917   1.044       .  S
N2914      H2918   1.044       .  S
C2919      C2920   1.406       .  A
C2919      C2924   1.392       .  A
C2919      H2926   1.084       .  S
C2920      C2921   1.414       .  A
C2921      C2922   1.416       .  A
C2921      N2928   1.437       .  S
C2922      C2923   1.408       .  A
C2922      H2927   1.083       .  S
C2923      C2924   1.397       .  A
C2924      N2925   1.435       .  S
N2925      H2929   1.046       .  S
N2925      H2930   1.046       .  S
N2928      H2931   1.046       .  S
N2928      H2932   1.045       .  S
C2933      C2934   1.404       .  A
C2933      C2938   1.391       .  A
C2933      H2940   1.086       .  S
C2934      C2935   1.423       .  A
C2935      C2936   1.409       .  A
C2935      N2942   1.438       .  S
C2936      C2937   1.405       .  A
C2936      H2941   1.083       .  S
C2937      C2938   1.409       .  A
C2938      N2939   1.440       .  S
N2939      H2943   1.046       .  S
N2939      H2944   1.044       .  S
N2942      H2945   1.040       .  S
N2942      H3552   1.046       .  S
H2946      N3548   1.046       .  S
C2947      C2948   1.412       .  A
C2947      C2952   1.406       .  A
C2947      H2954   1.084       .  S
C2948      C2949   1.402       .  A
C2949      C2950   1.405       .  A
C2949      N2956   1.437       .  S
C2950      C2951   1.413       .  A
C2950      H2955   1.084       .  S
C2951      C2952   1.403       .  A
C2952      N2953   1.437       .  S
N2953      H3563   1.046       .  S
N2953      H2958   1.045       .  S
N2956      H2959   1.046       .  S
N2956      H2960   1.046       .  S
H2957      N3559   1.046       .  S
C2961      C2962   1.408       .  A
C2961      C2966   1.395       .  A
C2961      H2968   1.082       .  S
C2962      C2963   1.412       .  A
C2963      C2964   1.416       .  A
C2963      N2970   1.437       .  S
C2964      C2965   1.410       .  A
C2964      H2969   1.084       .  S
C2965      C2966   1.403       .  A
C2966      N2967   1.441       .  S
N2967      H2971   1.046       .  S
N2967      H2972   1.045       .  S
N2970      H2973   1.045       .  S
N2970      H2974   1.046       .  S
C2975      C2976   1.408       .  A
C2975      C2980   1.413       .  A
C2975      H2982   1.084       .  S
C2976      C2977   1.403       .  A
C2977      C2978   1.404       .  A
C2977      N2984   1.436       .  S
C2978      C2979   1.407       .  A
C2978      H2983   1.084       .  S
C2979      C2980   1.407       .  A
C2980      N2981   1.436       .  S
N2981      H2985   1.046       .  S
N2981      H2986   1.046       .  S
N2984      H2987   1.045       .  S
N2984      H2988   1.044       .  S
C2989      C2990   1.406       .  A
C2989      C2994   1.409       .  A
C2989      H2996   1.083       .  S
C2990      C2991   1.419       .  A
C2991      C2992   1.405       .  A
C2991      N2998   1.438       .  S
C2992      C2993   1.400       .  A
C2992      H2997   1.084       .  S
C2993      C2994   1.412       .  A
C2994      N2995   1.438       .  S
N2995      H2999   1.045       .  S
N2995      H3000   1.046       .  S
N2998      H3001   1.046       .  S
N2998      H3002   1.046       .  S
C3003      C3004   1.401       .  A
C3003      C3008   1.400       .  A
C3003      H3010   1.082       .  S
C3004      C3005   1.411       .  A
C3005      C3006   1.421       .  A
C3005      N3012   1.435       .  S
C3006      C3007   1.412       .  A
C3006      H3011   1.083       .  S
C3007      C3008   1.416       .  A
C3008      N3009   1.439       .  S
N3009      H3013   1.046       .  S
N3009      H3014   1.046       .  S
N3012      H3015   1.045       .  S
N3012      H3016   1.044       .  S
C3017      C3018   1.398       .  A
C3017      C3022   1.407       .  A
C3017      H3024   1.084       .  S
C3018      C3019   1.409       .  A
C3019      C3020   1.410       .  A
C3019      N3026   1.431       .  S
C3020      C3021   1.401       .  A
C3020      H3025   1.084       .  S
C3021      C3022   1.420       .  A
C3022      N3023   1.437       .  S
N3023      H3027   1.046       .  S
N3023      H3028   1.046       .  S
N3026      H3029   1.046       .  S
N3026      H3030   1.042       .  S
N3031      N3032   1.335       .  A
N3031      N3037   1.320       .  A
N3032      C3039   1.366       .  A
N3033      N3035   1.319       .  A
N3033      N3034   1.308       .  A
N3034      C3040   1.337       .  A
N3035      N3036   1.329       .  A
N3035     Mn3060   2.230   1_556  S
N3036      C3040   1.360       .  A
N3037      N3038   1.304       .  A
N3037     Mn3049   2.152       .  S
N3038      C3039   1.334       .  A
C3039      C3568   1.484       .  S
C3040      C3543   1.464       .  S
N3041      N3047   1.311       .  A
N3041      N3042   1.331       .  A
N3042      C3050   1.358       .  A
N3043      N3044   1.317       .  A
N3043      N3045   1.310       .  A
N3043     Mn3049   2.165       .  S
N3044      C3051   1.345       .  A
N3045      N3046   1.327       .  A
N3045     Mn3071   2.217       .  S
N3046      C3051   1.358       .  A
N3047      N3048   1.315       .  A
N3048      C3050   1.345       .  A
Mn3049    Cl3073   2.446       .  S
C3050      C3613   1.497       .  S
C3051      C3627   1.493       .  S
N3052      N3053   1.333       .  A
N3052      N3058   1.319       .  A
N3052     Mn3060   2.246   1_556  S
N3053      C3061   1.364       .  A
N3054      N3056   1.323       .  A
N3054      N3055   1.311       .  A
N3055      C3062   1.339       .  A
N3056      N3057   1.330       .  A
N3057      C3062   1.360       .  A
N3058      N3059   1.303       .  A
N3058     Mn3072   2.147   1_556  S
N3059      C3061   1.333       .  A
C3061      C3526   1.478       .  S
C3062      C3554   1.478       .  S
N3063      N3064   1.325       .  A
N3063      N3069   1.312       .  A
N3063     Mn3071   2.205       .  S
N3064      C3074   1.355       .  A
N3065      N3066   1.322       .  A
N3065      N3067   1.310       .  A
N3065     Mn3072   2.184   1_556  S
N3066      C3075   1.349       .  A
N3067      N3068   1.323       .  A
N3068      C3075   1.352       .  A
N3069      N3070   1.318       .  A
N3070      C3074   1.349       .  A
Mn3071    Cl3073   2.602       .  S
C3074      C3596   1.491       .  S
C3075      C3582   1.480       .  S
N3076      N3077   1.330       .  A
N3076      N3082   1.311       .  A
N3076     Mn3105   2.222       .  S
N3077      C3084   1.361       .  A
N3078      N3080   1.311       .  A
N3078      N3079   1.319       .  A
N3079      C3085   1.345       .  A
N3080      N3081   1.326       .  A
N3081      C3085   1.354       .  A
N3082      N3083   1.316       .  A
N3082     Mn3094   2.178       .  S
N3083      C3084   1.347       .  A
C3084      C3515   1.500       .  S
C3085      C3498   1.484       .  S
N3086      N3092   1.320       .  A
N3086      N3087   1.331       .  A
N3087      C3095   1.363       .  A
N3088      N3089   1.307       .  A
N3088      N3090   1.321       .  A
N3088     Mn3094   2.156       .  S
N3089      C3096   1.334       .  A
N3090      N3091   1.331       .  A
N3090     Mn3116   2.243       .  S
N3091      C3096   1.362       .  A
N3092      N3093   1.306       .  A
N3093      C3095   1.335       .  A
Mn3094    Cl3118   2.442       .  S
C3095      C3459   1.471       .  S
C3096      C3431   1.464       .  S
N3097      N3098   1.333       .  A
N3097      N3103   1.310       .  A
N3098      C3106   1.361       .  A
N3099      N3101   1.311       .  A
N3099      N3100   1.313       .  A
N3099     Mn3117   2.151       .  S
N3100      C3107   1.343       .  A
N3101      N3102   1.329       .  A
N3101     Mn3105   2.222       .  S
N3102      C3107   1.359       .  A
N3103      N3104   1.314       .  A
N3104      C3106   1.341       .  A
Mn3105    Cl3118   2.597       .  S
C3106      C3473   1.503       .  S
C3107      C3484   1.480       .  S
N3108      N3109   1.332       .  A
N3108      N3114   1.319       .  A
N3108     Mn3116   2.244       .  S
N3109      C3119   1.364       .  A
N3110      N3111   1.303       .  A
N3110      N3112   1.318       .  A
N3111      C3120   1.333       .  A
N3112      N3113   1.333       .  A
N3113      C3120   1.367       .  A
N3114      N3115   1.309       .  A
N3114     Mn3117   2.163       .  S
N3115      C3119   1.336       .  A
Mn3116    Cl3118   2.615       .  S
Mn3117    Cl3118   2.444       .  S
C3119      C3414   1.474       .  S
C3120      C3442   1.484       .  S
N3121      N3122   1.330       .  A
N3121      N3127   1.320       .  A
N3121     Mn3150   2.240       .  S
N3122      C3129   1.361       .  A
N3123      N3125   1.319       .  A
N3123      N3124   1.305       .  A
N3123     Mn3139   2.151       .  S
N3124      C3130   1.334       .  A
N3125      N3126   1.333       .  A
N3125     Mn3150   2.248       .  S
N3126      C3130   1.365       .  A
N3127      N3128   1.308       .  A
N3127     Mn3139   2.157       .  S
N3128      C3129   1.335       .  A
C3129      C3571   1.465       .  S
C3130      C3428   1.477       .  S
N3131      N3137   1.311       .  A
N3131      N3132   1.323       .  A
N3131     Mn4373   2.215       .  S
N3132      C3140   1.356       .  A
N3133      N3134   1.323       .  A
N3133      N3135   1.312       .  A
N3133     Mn3139   2.190       .  S
N3134      C3141   1.350       .  A
N3135      N3136   1.325       .  A
N3135     Mn4373   2.217       .  S
N3136      C3141   1.355       .  A
N3137      N3138   1.322       .  A
N3137     Mn3139   2.179       .  S
N3138      C3140   1.347       .  A
Mn3139    Cl4375   2.456       .  S
C3140      C3389   1.483       .  S
C3141      C3400   1.484       .  S
N3142      N3143   1.331       .  A
N3142      N3148   1.321       .  A
N3142     Mn4362   2.251       .  S
N3143      C3151   1.363       .  A
N3144      N3146   1.322       .  A
N3144      N3145   1.311       .  A
N3144     Mn3162   2.174       .  S
N3145      C3152   1.339       .  A
N3146      N3147   1.330       .  A
N3146     Mn4362   2.240       .  S
N3147      C3152   1.360       .  A
N3148      N3149   1.310       .  A
N3148     Mn3162   2.166       .  S
N3149      C3151   1.338       .  A
Mn3150     N4354   2.251   1_545  S
Mn3150     N4358   2.240   1_545  S
Mn3150    Cl4375   2.619       .  S
C3151      C3417   1.477       .  S
C3152      C3557   1.482       .  S
N3153      N3154   1.321       .  A
N3153      N3159   1.313       .  A
N3153     Mn3161   2.204       .  S
N3154      C3164   1.353       .  A
N3155      N3156   1.322       .  A
N3155      N3157   1.312       .  A
N3155     Mn3162   2.195       .  S
N3156      C3165   1.352       .  A
N3157      N3158   1.324       .  A
N3157     Mn3161   2.215       .  S
N3158      C3165   1.357       .  A
N3159      N3160   1.323       .  A
N3159     Mn3162   2.195       .  S
N3160      C3164   1.352       .  A
Mn3161     N4343   2.215       .  S
Mn3161     N4347   2.217       .  S
Mn3161    Cl3163   2.590       .  S
Mn3162    Cl3163   2.466       .  S
Cl3163    Mn4351   2.456       .  S
Cl3163    Mn4362   2.619       .  S
C3164      C3372   1.495       .  S
C3165      C3358   1.502       .  S
N3166      N3167   1.325       .  A
N3166      N3172   1.312       .  A
N3166     Mn3195   2.225   1_545  S
N3167      C3174   1.359       .  A
N3168      N3170   1.313       .  A
N3168      N3169   1.320       .  A
N3168     Mn3184   2.171       .  S
N3169      C3175   1.344       .  A
N3170      N3171   1.326       .  A
N3170     Mn3195   2.227   1_545  S
N3171      C3175   1.357       .  A
N3172      N3173   1.322       .  A
N3172     Mn3184   2.181       .  S
N3173      C3174   1.350       .  A
C3174      C3344   1.494       .  S
C3175      C3333   1.480       .  S
N3176      N3182   1.319       .  A
N3176      N3177   1.328       .  A
N3176     Mn3206   2.227       .  S
N3177      C3185   1.359       .  A
N3178      N3179   1.306       .  A
N3178      N3180   1.320       .  A
N3178     Mn3184   2.157       .  S
N3179      C3186   1.337       .  A
N3180      N3181   1.330       .  A
N3180     Mn3206   2.239       .  S
N3181      C3186   1.362       .  A
N3182      N3183   1.308       .  A
N3182     Mn3184   2.162       .  S
N3183      C3185   1.337       .  A
Mn3184    Cl3208   2.476       .  S
C3185      C3456   1.462       .  S
C3186      C3540   1.475       .  S
N3187      N3188   1.326       .  A
N3187      N3193   1.311       .  A
N3187     Mn4407   2.215       .  S
N3188      C3196   1.359       .  A
N3189      N3191   1.313       .  A
N3189      N3190   1.319       .  A
N3189     Mn3207   2.179       .  S
N3190      C3197   1.348       .  A
N3191      N3192   1.325       .  A
N3191     Mn4407   2.227       .  S
N3192      C3197   1.359       .  A
N3193      N3194   1.320       .  A
N3193     Mn3207   2.189       .  S
N3194      C3196   1.351       .  A
Mn3195     N4399   2.214       .  S
Mn3195     N4403   2.226       .  S
Mn3195    Cl3208   2.585   1_565  S
C3196      C3305   1.498       .  S
C3197      C3319   1.489       .  S
N3198      N3199   1.329       .  A
N3198      N3204   1.320       .  A
N3198     Mn4418   2.224       .  S
N3199      C3209   1.357       .  A
N3200      N3201   1.307       .  A
N3200      N3202   1.320       .  A
N3200     Mn3207   2.149       .  S
N3201      C3210   1.334       .  A
N3202      N3203   1.329       .  A
N3202     Mn4418   2.236       .  S
N3203      C3210   1.359       .  A
N3204      N3205   1.310       .  A
N3204     Mn3207   2.173       .  S
N3205      C3209   1.338       .  A
Mn3206     N4410   2.225   1_545  S
Mn3206     N4414   2.236   1_545  S
Mn3206    Cl3208   2.601       .  S
Mn3207    Cl4420   2.470       .  S
Cl3208    Mn4419   2.470   1_545  S
C3209      C3529   1.463       .  S
C3210      C3445   1.458       .  S
N3211      N3212   1.329       .  A
N3211      N3217   1.321       .  A
N3212      C3219   1.361       .  A
N3213      N3215   1.320       .  A
N3213      N3214   1.310       .  A
N3214      C3220   1.340       .  A
N3215      N3216   1.331       .  A
N3215     Mn3240   2.255       .  S
N3216      C3220   1.365       .  A
N3217      N3218   1.313       .  A
N3217     Mn3229   2.188       .  S
N3218      C3219   1.342       .  A
C3219      C3624   1.477       .  S
C3220      C3512   1.483       .  S
N3221      N3227   1.313       .  A
N3221      N3222   1.325       .  A
N3222      C3230   1.355       .  A
N3223      N3224   1.322       .  A
N3223      N3225   1.313       .  A
N3223     Mn3229   2.190       .  S
N3224      C3231   1.350       .  A
N3225      N3226   1.326       .  A
N3225     Mn3251   2.228       .  S
N3226      C3231   1.357       .  A
N3227      N3228   1.322       .  A
N3228      C3230   1.350       .  A
Mn3229    Cl3253   2.481       .  S
C3230      C3386   1.484       .  S
C3231      C3403   1.485       .  S
N3232      N3233   1.329       .  A
N3232      N3238   1.320       .  A
N3232     Mn3240   2.244       .  S
N3233      C3241   1.362       .  A
N3234      N3236   1.318       .  A
N3234      N3235   1.308       .  A
N3234     Mn3252   2.176       .  S
N3235      C3242   1.341       .  A
N3236      N3237   1.335       .  A
N3237      C3242   1.366       .  A
N3238      N3239   1.312       .  A
N3239      C3241   1.342       .  A
C3241      C3501   1.476       .  S
C3242      C3610   1.490       .  S
N3243      N3244   1.323       .  A
N3243      N3249   1.312       .  A
N3243     Mn3251   2.206       .  S
N3244      C3254   1.354       .  A
N3245      N3246   1.321       .  A
N3245      N3247   1.312       .  A
N3246      C3255   1.349       .  A
N3247      N3248   1.325       .  A
N3248      C3255   1.356       .  A
N3249      N3250   1.322       .  A
N3249     Mn3252   2.195       .  S
N3250      C3254   1.351       .  A
Mn3251    Cl3253   2.593       .  S
Mn3252    Cl3253   2.473       .  S
C3254      C3347   1.490       .  S
C3255      C3330   1.483       .  S
N3256      N3257   1.324       .  A
N3256      N3262   1.311       .  A
N3257      C3264   1.361       .  A
N3258      N3260   1.311       .  A
N3258      N3259   1.321       .  A
N3258     Mn3274   2.187       .  S
N3259      C3265   1.350       .  A
N3260      N3261   1.325       .  A
N3260     Mn3285   2.216   1_655  S
N3261      C3265   1.358       .  A
N3262      N3263   1.319       .  A
N3263      C3264   1.350       .  A
C3264      C3375   1.494       .  S
C3265      C3361   1.496       .  S
N3266      N3272   1.315       .  A
N3266      N3267   1.336       .  A
N3266     Mn3296   2.264       .  S
N3267      C3275   1.372       .  A
N3268      N3269   1.313       .  A
N3268      N3270   1.320       .  A
N3269      C3276   1.342       .  A
N3270      N3271   1.328       .  A
N3271      C3276   1.359       .  A
N3272      N3273   1.302       .  A
N3272     Mn3274   2.149       .  S
N3273      C3275   1.336       .  A
Mn3274    Cl3298   2.463       .  S
C3275      C3487   1.497       .  S
C3276      C3599   1.473       .  S
N3277      N3278   1.321       .  A
N3277      N3283   1.313       .  A
N3277     Mn3285   2.208   1_655  S
N3278      C3286   1.354       .  A
N3279      N3281   1.313       .  A
N3279      N3280   1.323       .  A
N3280      C3287   1.349       .  A
N3281      N3282   1.323       .  A
N3282      C3287   1.358       .  A
N3283      N3284   1.323       .  A
N3283     Mn3297   2.190       .  S
N3284      C3286   1.353       .  A
Mn3285    Cl3298   2.586   1_455  S
C3286      C3302   1.495       .  S
C3287      C3316   1.488       .  S
N3288      N3289   1.331       .  A
N3288      N3294   1.321       .  A
N3289      C3299   1.364       .  A
N3290      N3291   1.312       .  A
N3290      N3292   1.320       .  A
N3290     Mn3297   2.189       .  S
N3291      C3300   1.342       .  A
N3292      N3293   1.332       .  A
N3292     Mn3296   2.232       .  S
N3293      C3300   1.360       .  A
N3294      N3295   1.310       .  A
N3295      C3299   1.339       .  A
Mn3296    Cl3298   2.625       .  S
Mn3297    Cl3298   2.469       .  S
C3299      C3585   1.476       .  S
C3300      C3470   1.480       .  S
C3301      C3302   1.406       .  A
C3301      C3306   1.410       .  A
C3301      H3308   1.083       .  S
C3302      C3303   1.413       .  A
C3303      C3304   1.410       .  A
C3303      N3310   1.437       .  S
C3304      C3305   1.406       .  A
C3304      H3309   1.082       .  S
C3305      C3306   1.417       .  A
C3306      N3307   1.438       .  S
N3307      H3311   1.046       .  S
N3307      H3312   1.045       .  S
N3310      H3313   1.043       .  S
N3310      H3314   1.043       .  S
C3315      C3316   1.399       .  A
C3315      C3320   1.414       .  A
C3315      H3322   1.084       .  S
C3316      C3317   1.402       .  A
C3317      C3318   1.404       .  A
C3317      N3324   1.419       .  S
C3318      C3319   1.397       .  A
C3318      H3323   1.084       .  S
C3319      C3320   1.419       .  A
C3320      N3321   1.433       .  S
N3321      H3325   1.045       .  S
N3321      H3326   1.045       .  S
N3324      H3327   1.046       .  S
N3324      H3328   1.037       .  S
C3329      C3330   1.404       .  A
C3329      C3334   1.411       .  A
C3329      H3336   1.083       .  S
C3330      C3331   1.421       .  A
C3331      C3332   1.404       .  A
C3331      N3338   1.439       .  S
C3332      C3333   1.397       .  A
C3332      H3337   1.082       .  S
C3333      C3334   1.410       .  A
C3334      N3335   1.438       .  S
N3335      H3339   1.046   1_545  S
N3335      H3340   1.041       .  S
N3338      H3341   1.042       .  S
N3338      H3342   1.045       .  S
C3343      C3344   1.404       .  A
C3343      C3348   1.406       .  A
C3343      H3350   1.084       .  S
C3344      C3345   1.414       .  A
C3345      C3346   1.399       .  A
C3345      N3352   1.423       .  S
C3346      C3347   1.400       .  A
C3346      H3351   1.084       .  S
C3347      C3348   1.421       .  A
C3348      N3349   1.432       .  S
N3349      H3353   1.044       .  S
N3349      H3354   1.045       .  S
N3352      H3355   1.045   1_545  S
N3352      H3356   1.042   1_545  S
C3357      C3358   1.406       .  A
C3357      C3362   1.409       .  A
C3357      H3364   1.084       .  S
C3358      C3359   1.417       .  A
C3359      C3360   1.410       .  A
C3359      N3366   1.431       .  S
C3360      C3361   1.401       .  A
C3360      H3365   1.082       .  S
C3361      C3362   1.416       .  A
C3362      N3363   1.432       .  S
N3363      H3367   1.046       .  S
N3363      H3368   1.046       .  S
N3366      H3369   1.036       .  S
N3366      H3370   1.043       .  S
C3371      C3372   1.406       .  A
C3371      C3376   1.411       .  A
C3371      H3378   1.083       .  S
C3372      C3373   1.415       .  A
C3373      C3374   1.408       .  A
C3373      N3380   1.436       .  S
C3374      C3375   1.400       .  A
C3374      H3379   1.084       .  S
C3375      C3376   1.418       .  A
C3376      N3377   1.438       .  S
N3377      H3381   1.046       .  S
N3377      H3382   1.046       .  S
N3380      H3383   1.044       .  S
N3380      H3384   1.046       .  S
C3385      C3386   1.405       .  A
C3385      C3390   1.410       .  A
C3385      H3392   1.082       .  S
C3386      C3387   1.416       .  A
C3387      C3388   1.408       .  A
C3387      N3394   1.438       .  S
C3388      C3389   1.406       .  A
C3388      H3393   1.084       .  S
C3389      C3390   1.402       .  A
C3390      N3391   1.434       .  S
N3391      H3395   1.044       .  S
N3391      H3396   1.045       .  S
N3394      H3397   1.044       .  S
N3394      H3398   1.046       .  S
C3399      C3400   1.401       .  A
C3399      C3404   1.411       .  A
C3399      H3406   1.084       .  S
C3400      C3401   1.414       .  A
C3401      C3402   1.413       .  A
C3401      N3408   1.438       .  S
C3402      C3403   1.402       .  A
C3402      H3407   1.084       .  S
C3403      C3404   1.412       .  A
C3404      N3405   1.436       .  S
N3405      H3409   1.045       .  S
N3405      H3410   1.043       .  S
N3408      H3411   1.045       .  S
N3408      H3412   1.046       .  S
C3413      C3414   1.401       .  A
C3413      C3418   1.395       .  A
C3413      H3420   1.085       .  S
C3414      C3415   1.421       .  A
C3415      C3416   1.411       .  A
C3415      N3422   1.438       .  S
C3416      C3417   1.406       .  A
C3416      H3421   1.084       .  S
C3417      C3418   1.416       .  A
C3418      N3419   1.439       .  S
N3419      H3423   1.046       .  S
N3419      H3424   1.044       .  S
N3422      H3425   1.042       .  S
N3422      H3426   1.046       .  S
C3427      C3428   1.404       .  A
C3427      C3432   1.392       .  A
C3427      H3434   1.085       .  S
C3428      C3429   1.412       .  A
C3429      C3430   1.415       .  A
C3429      N3436   1.436       .  S
C3430      C3431   1.409       .  A
C3430      H3435   1.084       .  S
C3431      C3432   1.410       .  A
C3432      N3433   1.440       .  S
N3433      H3437   1.046       .  S
N3433      H3438   1.044       .  S
N3436      H3439   1.045       .  S
N3436      H3440   1.046       .  S
C3441      C3442   1.413       .  A
C3441      C3446   1.395       .  A
C3441      H3448   1.082       .  S
C3442      C3443   1.407       .  A
C3443      C3444   1.412       .  A
C3443      N3450   1.435       .  S
C3444      C3445   1.410       .  A
C3444      H3449   1.084       .  S
C3445      C3446   1.399       .  A
C3446      N3447   1.440       .  S
N3447      H3451   1.046       .  S
N3447      H3452   1.046       .  S
N3450      H3453   1.045       .  S
N3450      H3454   1.043       .  S
C3455      C3456   1.407       .  A
C3455      C3460   1.412       .  A
C3455      H3462   1.084       .  S
C3456      C3457   1.411       .  A
C3457      C3458   1.393       .  A
C3457      N3464   1.440       .  S
C3458      C3459   1.403       .  A
C3458      H3463   1.085       .  S
C3459      C3460   1.411       .  A
C3460      N3461   1.437       .  S
N3461      H3465   1.046       .  S
N3461      H3466   1.045       .  S
N3464      H3467   1.044       .  S
N3464      H3468   1.046       .  S
C3469      C3470   1.396       .  A
C3469      C3474   1.401       .  A
C3469      H3476   1.085       .  S
C3470      C3471   1.413       .  A
C3471      C3472   1.418       .  A
C3471      N3478   1.436       .  S
C3472      C3473   1.410       .  A
C3472      H3477   1.083       .  S
C3473      C3474   1.424       .  A
C3474      N3475   1.438       .  S
N3475      H3479   1.046       .  S
N3475      H3480   1.046       .  S
N3478      H3481   1.045       .  S
N3478      H3482   1.046       .  S
C3483      C3484   1.410       .  A
C3483      C3488   1.416       .  A
C3483      H3490   1.079       .  S
C3484      C3485   1.413       .  A
C3485      C3486   1.391       .  A
C3485      N3492   1.443       .  S
C3486      C3487   1.410       .  A
C3486      H3491   1.084       .  S
C3487      C3488   1.410       .  A
C3488      N3489   1.433       .  S
N3489      H3493   1.046       .  S
N3489      H3494   1.043       .  S
N3492      H3495   1.042       .  S
N3492      H3496   1.046       .  S
C3497      C3498   1.396       .  A
C3497      C3502   1.405       .  A
C3497      H3504   1.084       .  S
C3498      C3499   1.423       .  A
C3499      C3500   1.405       .  A
C3499      N3506   1.432       .  S
C3500      C3501   1.398       .  A
C3500      H3505   1.084       .  S
C3501      C3502   1.412       .  A
C3502      N3503   1.433       .  S
N3503      H3507   1.043   1_655  S
N3503      H3508   1.044       .  S
N3506      H3509   1.046       .  S
N3506      H3510   1.043       .  S
C3511      C3512   1.401       .  A
C3511      C3516   1.403       .  A
C3511      H3518   1.084       .  S
C3512      C3513   1.406       .  A
C3513      C3514   1.417       .  A
C3513      N3520   1.434       .  S
C3514      C3515   1.410       .  A
C3514      H3519   1.082       .  S
C3515      C3516   1.420       .  A
C3516      N3517   1.439       .  S
N3517      H3521   1.046       .  S
N3517      H3522   1.046       .  S
N3520      H3523   1.044       .  S
N3520      H3524   1.044       .  S
C3525      C3526   1.406       .  A
C3525      C3530   1.392       .  A
C3525      H3532   1.084       .  S
C3526      C3527   1.414       .  A
C3527      C3528   1.416       .  A
C3527      N3534   1.437       .  S
C3528      C3529   1.408       .  A
C3528      H3533   1.083       .  S
C3529      C3530   1.397       .  A
C3530      N3531   1.435       .  S
N3531      H3535   1.046       .  S
N3531      H3536   1.046       .  S
N3534      H3537   1.046       .  S
N3534      H3538   1.045       .  S
C3539      C3540   1.404       .  A
C3539      C3544   1.391       .  A
C3539      H3546   1.086       .  S
C3540      C3541   1.423       .  A
C3541      C3542   1.409       .  A
C3541      N3548   1.438       .  S
C3542      C3543   1.405       .  A
C3542      H3547   1.083       .  S
C3543      C3544   1.409       .  A
C3544      N3545   1.440       .  S
N3545      H3549   1.046       .  S
N3545      H3550   1.044       .  S
N3548      H3551   1.040       .  S
C3553      C3554   1.412       .  A
C3553      C3558   1.406       .  A
C3553      H3560   1.084       .  S
C3554      C3555   1.402       .  A
C3555      C3556   1.405       .  A
C3555      N3562   1.437       .  S
C3556      C3557   1.413       .  A
C3556      H3561   1.084       .  S
C3557      C3558   1.403       .  A
C3558      N3559   1.437       .  S
N3559      H3564   1.045       .  S
N3562      H3565   1.046       .  S
N3562      H3566   1.046       .  S
C3567      C3568   1.408       .  A
C3567      C3572   1.395       .  A
C3567      H3574   1.082       .  S
C3568      C3569   1.412       .  A
C3569      C3570   1.416       .  A
C3569      N3576   1.437       .  S
C3570      C3571   1.410       .  A
C3570      H3575   1.084       .  S
C3571      C3572   1.403       .  A
C3572      N3573   1.441       .  S
N3573      H3577   1.046       .  S
N3573      H3578   1.045       .  S
N3576      H3579   1.045       .  S
N3576      H3580   1.046       .  S
C3581      C3582   1.408       .  A
C3581      C3586   1.413       .  A
C3581      H3588   1.084       .  S
C3582      C3583   1.403       .  A
C3583      C3584   1.404       .  A
C3583      N3590   1.436       .  S
C3584      C3585   1.407       .  A
C3584      H3589   1.084       .  S
C3585      C3586   1.407       .  A
C3586      N3587   1.436       .  S
N3587      H3591   1.046       .  S
N3587      H3592   1.046       .  S
N3590      H3593   1.045       .  S
N3590      H3594   1.044       .  S
C3595      C3596   1.406       .  A
C3595      C3600   1.409       .  A
C3595      H3602   1.083       .  S
C3596      C3597   1.419       .  A
C3597      C3598   1.405       .  A
C3597      N3604   1.438       .  S
C3598      C3599   1.400       .  A
C3598      H3603   1.084       .  S
C3599      C3600   1.412       .  A
C3600      N3601   1.438       .  S
N3601      H3605   1.045       .  S
N3601      H3606   1.046       .  S
N3604      H3607   1.046       .  S
N3604      H3608   1.046       .  S
C3609      C3610   1.401       .  A
C3609      C3614   1.400       .  A
C3609      H3616   1.082       .  S
C3610      C3611   1.411       .  A
C3611      C3612   1.421       .  A
C3611      N3618   1.435       .  S
C3612      C3613   1.412       .  A
C3612      H3617   1.083       .  S
C3613      C3614   1.416       .  A
C3614      N3615   1.439       .  S
N3615      H3619   1.046       .  S
N3615      H3620   1.046       .  S
N3618      H3621   1.045       .  S
N3618      H3622   1.044       .  S
C3623      C3624   1.398       .  A
C3623      C3628   1.407       .  A
C3623      H3630   1.084       .  S
C3624      C3625   1.409       .  A
C3625      C3626   1.410       .  A
C3625      N3632   1.431       .  S
C3626      C3627   1.401       .  A
C3626      H3631   1.084       .  S
C3627      C3628   1.420       .  A
C3628      N3629   1.437       .  S
N3629      H3633   1.046       .  S
N3629      H3634   1.046       .  S
N3632      H3635   1.046       .  S
N3632      H3636   1.042       .  S
N3637      N3638   1.335       .  A
N3637      N3643   1.320       .  A
N3637     Mn4272   2.255       .  S
N3638      C3645   1.366       .  A
N3639      N3641   1.319       .  A
N3639      N3640   1.308       .  A
N3639     Mn4261   2.162       .  S
N3640      C3646   1.337       .  A
N3641      N3642   1.329       .  A
N3641     Mn3666   2.230       .  S
N3642      C3646   1.360       .  A
N3643      N3644   1.304       .  A
N3643     Mn3655   2.152       .  S
N3644      C3645   1.334       .  A
C3645      C4174   1.484       .  S
C3646      C4149   1.464       .  S
N3647      N3653   1.311       .  A
N3647      N3648   1.331       .  A
N3647     Mn4283   2.223       .  S
N3648      C3656   1.358       .  A
N3649      N3650   1.317       .  A
N3649      N3651   1.310       .  A
N3649     Mn3655   2.165       .  S
N3650      C3657   1.345       .  A
N3651      N3652   1.327       .  A
N3651     Mn3677   2.217       .  S
N3652      C3657   1.358       .  A
N3653      N3654   1.315       .  A
N3653     Mn4261   2.167       .  S
N3654      C3656   1.345       .  A
Mn3655     N4245   2.162   1_554  S
Mn3655     N4259   2.167   1_554  S
Mn3655    Cl3679   2.446       .  S
C3656      C4219   1.497       .  S
C3657      C4233   1.493       .  S
N3658      N3659   1.333       .  A
N3658      N3664   1.319       .  A
N3658     Mn3666   2.246       .  S
N3659      C3667   1.364       .  A
N3660      N3662   1.323       .  A
N3660      N3661   1.311       .  A
N3660     Mn4284   2.180       .  S
N3661      C3668   1.339       .  A
N3662      N3663   1.330       .  A
N3662     Mn4272   2.234       .  S
N3663      C3668   1.360       .  A
N3664      N3665   1.303       .  A
N3664     Mn3678   2.147       .  S
N3665      C3667   1.333       .  A
Mn3666     N4243   2.255       .  S
Mn3666     N4268   2.234       .  S
Mn3666    Cl4285   2.612       .  S
C3667      C4132   1.478       .  S
C3668      C4160   1.478       .  S
N3669      N3670   1.325       .  A
N3669      N3675   1.312       .  A
N3669     Mn3677   2.205       .  S
N3670      C3680   1.355       .  A
N3671      N3672   1.322       .  A
N3671      N3673   1.310       .  A
N3671     Mn3678   2.184       .  S
N3672      C3681   1.349       .  A
N3673      N3674   1.323       .  A
N3673     Mn4283   2.195       .  S
N3674      C3681   1.352       .  A
N3675      N3676   1.319       .  A
N3675     Mn4284   2.185       .  S
N3676      C3680   1.349       .  A
Mn3677     N4253   2.223   1_554  S
Mn3677     N4279   2.195   1_554  S
Mn3677    Cl3679   2.602       .  S
Mn3678     N4266   2.180       .  S
Mn3678     N4281   2.185       .  S
Mn3678    Cl4285   2.437       .  S
Cl3679    Mn4272   2.612       .  S
Cl3679    Mn4284   2.437       .  S
C3680      C4202   1.491       .  S
C3681      C4188   1.480       .  S
N3682      N3683   1.330       .  A
N3682      N3688   1.311       .  A
N3682     Mn3711   2.222       .  S
N3683      C3690   1.361       .  A
N3684      N3686   1.311       .  A
N3684      N3685   1.319       .  A
N3684     Mn4306   2.171       .  S
N3685      C3691   1.345       .  A
N3686      N3687   1.326       .  A
N3686     Mn4317   2.211       .  S
N3687      C3691   1.354       .  A
N3688      N3689   1.316       .  A
N3688     Mn3700   2.178       .  S
N3689      C3690   1.347       .  A
C3690      C4121   1.500       .  S
C3691      C4104   1.484       .  S
N3692      N3698   1.320       .  A
N3692      N3693   1.331       .  A
N3692     Mn4328   2.246       .  S
N3693      C3701   1.363       .  A
N3694      N3695   1.307       .  A
N3694      N3696   1.321       .  A
N3694     Mn3700   2.156       .  S
N3695      C3702   1.334       .  A
N3696      N3697   1.331       .  A
N3696     Mn3722   2.242   1_554  S
N3697      C3702   1.362       .  A
N3698      N3699   1.305       .  A
N3698     Mn4306   2.154       .  S
N3699      C3701   1.335       .  A
Mn3700     N4290   2.171   1_554  S
Mn3700     N4304   2.154   1_554  S
Mn3700    Cl3724   2.442       .  S
C3701      C4065   1.471       .  S
C3702      C4037   1.464       .  S
N3703      N3704   1.333       .  A
N3703      N3709   1.310       .  A
N3703     Mn4317   2.237       .  S
N3704      C3712   1.361       .  A
N3705      N3707   1.311       .  A
N3705      N3706   1.313       .  A
N3705     Mn3723   2.151       .  S
N3706      C3713   1.343       .  A
N3707      N3708   1.329       .  A
N3707     Mn3711   2.222       .  S
N3708      C3713   1.359       .  A
N3709      N3710   1.314       .  A
N3709     Mn4329   2.156       .  S
N3710      C3712   1.341       .  A
Mn3711     N4292   2.211   1_554  S
Mn3711     N4309   2.237   1_554  S
Mn3711    Cl3724   2.597       .  S
C3712      C4079   1.503       .  S
C3713      C4090   1.480       .  S
N3714      N3715   1.332       .  A
N3714      N3720   1.319       .  A
N3714     Mn3722   2.244   1_554  S
N3715      C3725   1.364       .  A
N3716      N3717   1.303       .  A
N3716      N3718   1.318       .  A
N3716     Mn4329   2.146       .  S
N3717      C3726   1.333       .  A
N3718      N3719   1.333       .  A
N3718     Mn4328   2.249       .  S
N3719      C3726   1.367       .  A
N3720      N3721   1.309       .  A
N3720     Mn3723   2.163       .  S
N3721      C3725   1.336       .  A
Mn3722     N4298   2.246       .  S
Mn3722     N4324   2.249       .  S
Mn3722    Cl3724   2.615   1_556  S
Mn3723     N4315   2.156   1_554  S
Mn3723     N4322   2.146   1_554  S
Mn3723    Cl3724   2.444       .  S
C3725      C4020   1.474       .  S
C3726      C4048   1.484       .  S
N3727      N3728   1.330       .  A
N3727      N3733   1.320       .  A
N3727     Mn3756   2.240       .  S
N3728      C3735   1.360       .  A
N3729      N3731   1.319       .  A
N3729      N3730   1.305       .  A
N3729     Mn3745   2.151       .  S
N3730      C3736   1.334       .  A
N3731      N3732   1.333       .  A
N3731     Mn3756   2.248       .  S
N3732      C3736   1.365       .  A
N3733      N3734   1.308       .  A
N3733     Mn3745   2.157       .  S
N3734      C3735   1.335       .  A
C3735      C4177   1.465       .  S
C3736      C4034   1.477       .  S
N3737      N3743   1.311       .  A
N3737      N3738   1.323       .  A
N3738      C3746   1.356       .  A
N3739      N3740   1.323       .  A
N3739      N3741   1.312       .  A
N3739     Mn3745   2.190       .  S
N3740      C3747   1.350       .  A
N3741      N3742   1.325       .  A
N3742      C3747   1.355       .  A
N3743      N3744   1.322       .  A
N3743     Mn3745   2.179       .  S
N3744      C3746   1.347       .  A
C3746      C3995   1.483       .  S
C3747      C4006   1.484       .  S
N3748      N3749   1.331       .  A
N3748      N3754   1.321       .  A
N3749      C3757   1.363       .  A
N3750      N3752   1.322       .  A
N3750      N3751   1.311       .  A
N3750     Mn3768   2.174       .  S
N3751      C3758   1.339       .  A
N3752      N3753   1.330       .  A
N3753      C3758   1.360       .  A
N3754      N3755   1.310       .  A
N3754     Mn3768   2.166       .  S
N3755      C3757   1.338       .  A
C3757      C4023   1.477       .  S
C3758      C4163   1.482       .  S
N3759      N3760   1.321       .  A
N3759      N3765   1.313       .  A
N3759     Mn3767   2.204   1_565  S
N3760      C3770   1.353       .  A
N3761      N3762   1.322       .  A
N3761      N3763   1.312       .  A
N3761     Mn3768   2.195       .  S
N3762      C3771   1.352       .  A
N3763      N3764   1.324       .  A
N3763     Mn3767   2.215   1_565  S
N3764      C3771   1.357       .  A
N3765      N3766   1.323       .  A
N3765     Mn3768   2.195       .  S
N3766      C3770   1.352       .  A
Mn3767    Cl3769   2.590       .  S
Mn3768    Cl3769   2.466   1_565  S
C3770      C3978   1.495       .  S
C3771      C3964   1.502       .  S
N3772      N3773   1.325       .  A
N3772      N3778   1.312       .  A
N3772     Mn3801   2.226       .  S
N3773      C3780   1.358       .  A
N3774      N3776   1.314       .  A
N3774      N3775   1.320       .  A
N3774     Mn3790   2.172       .  S
N3775      C3781   1.344       .  A
N3776      N3777   1.326       .  A
N3776     Mn3801   2.227       .  S
N3777      C3781   1.357       .  A
N3778      N3779   1.322       .  A
N3778     Mn3790   2.182       .  S
N3779      C3780   1.350       .  A
C3780      C3950   1.494       .  S
C3781      C3939   1.480       .  S
N3782      N3788   1.318       .  A
N3782      N3783   1.329       .  A
N3782     Mn3812   2.227       .  S
N3783      C3791   1.359       .  A
N3784      N3785   1.306       .  A
N3784      N3786   1.320       .  A
N3784     Mn3790   2.156       .  S
N3785      C3792   1.337       .  A
N3786      N3787   1.330       .  A
N3786     Mn3812   2.238       .  S
N3787      C3792   1.362       .  A
N3788      N3789   1.308       .  A
N3788     Mn3790   2.161       .  S
N3789      C3791   1.337       .  A
Mn3790    Cl3814   2.476       .  S
C3791      C4062   1.462       .  S
C3792      C4146   1.475       .  S
N3793      N3794   1.326       .  A
N3793      N3799   1.311       .  A
N3794      C3802   1.359       .  A
N3795      N3797   1.313       .  A
N3795      N3796   1.319       .  A
N3795     Mn3813   2.178       .  S
N3796      C3803   1.348       .  A
N3797      N3798   1.325       .  A
N3798      C3803   1.359       .  A
N3799      N3800   1.320       .  A
N3799     Mn3813   2.188       .  S
N3800      C3802   1.351       .  A
Mn3801    Cl3814   2.576       .  S
C3802      C3911   1.498       .  S
C3803      C3925   1.489       .  S
N3804      N3805   1.329       .  A
N3804      N3810   1.321       .  A
N3805      C3815   1.357       .  A
N3806      N3807   1.307       .  A
N3806      N3808   1.320       .  A
N3806     Mn3813   2.150       .  S
N3807      C3816   1.334       .  A
N3808      N3809   1.329       .  A
N3809      C3816   1.359       .  A
N3810      N3811   1.310       .  A
N3810     Mn3813   2.174       .  S
N3811      C3815   1.338       .  A
Mn3812    Cl3814   2.611       .  S
C3815      C4135   1.463       .  S
C3816      C4051   1.458       .  S
N3817      N3818   1.329       .  A
N3817      N3823   1.321       .  A
N3818      C3825   1.361       .  A
N3819      N3821   1.320       .  A
N3819      N3820   1.310       .  A
N3820      C3826   1.340       .  A
N3821      N3822   1.331       .  A
N3821     Mn3846   2.255       .  S
N3822      C3826   1.365       .  A
N3823      N3824   1.313       .  A
N3823     Mn3835   2.188       .  S
N3824      C3825   1.342       .  A
C3825      C4230   1.477       .  S
C3826      C4118   1.483       .  S
N3827      N3833   1.313       .  A
N3827      N3828   1.325       .  A
N3828      C3836   1.355       .  A
N3829      N3830   1.322       .  A
N3829      N3831   1.313       .  A
N3829     Mn3835   2.190       .  S
N3830      C3837   1.350       .  A
N3831      N3832   1.326       .  A
N3831     Mn3857   2.228       .  S
N3832      C3837   1.357       .  A
N3833      N3834   1.322       .  A
N3834      C3836   1.350       .  A
Mn3835    Cl3859   2.481       .  S
C3836      C3992   1.484       .  S
C3837      C4009   1.485       .  S
N3838      N3839   1.329       .  A
N3838      N3844   1.320       .  A
N3838     Mn3846   2.244       .  S
N3839      C3847   1.362       .  A
N3840      N3842   1.318       .  A
N3840      N3841   1.308       .  A
N3840     Mn3858   2.176       .  S
N3841      C3848   1.341       .  A
N3842      N3843   1.335       .  A
N3843      C3848   1.366       .  A
N3844      N3845   1.312       .  A
N3845      C3847   1.342       .  A
C3847      C4107   1.476       .  S
C3848      C4216   1.490       .  S
N3849      N3850   1.323       .  A
N3849      N3855   1.312       .  A
N3849     Mn3857   2.206       .  S
N3850      C3860   1.354       .  A
N3851      N3852   1.321       .  A
N3851      N3853   1.312       .  A
N3852      C3861   1.349       .  A
N3853      N3854   1.325       .  A
N3854      C3861   1.356       .  A
N3855      N3856   1.322       .  A
N3855     Mn3858   2.195       .  S
N3856      C3860   1.351       .  A
Mn3857    Cl3859   2.593       .  S
Mn3858    Cl3859   2.473       .  S
C3860      C3953   1.490       .  S
C3861      C3936   1.483       .  S
N3862      N3863   1.324       .  A
N3862      N3868   1.311       .  A
N3863      C3870   1.361       .  A
N3864      N3866   1.311       .  A
N3864      N3865   1.321       .  A
N3864     Mn3880   2.187       .  S
N3865      C3871   1.350       .  A
N3866      N3867   1.325       .  A
N3866     Mn3891   2.216   1_655  S
N3867      C3871   1.358       .  A
N3868      N3869   1.319       .  A
N3869      C3870   1.350       .  A
C3870      C3981   1.494       .  S
C3871      C3967   1.496       .  S
N3872      N3878   1.315       .  A
N3872      N3873   1.336       .  A
N3872     Mn3902   2.264       .  S
N3873      C3881   1.372       .  A
N3874      N3875   1.313       .  A
N3874      N3876   1.320       .  A
N3875      C3882   1.342       .  A
N3876      N3877   1.328       .  A
N3877      C3882   1.360       .  A
N3878      N3879   1.302       .  A
N3878     Mn3880   2.149       .  S
N3879      C3881   1.336       .  A
Mn3880    Cl3904   2.463       .  S
C3881      C4093   1.497       .  S
C3882      C4205   1.473       .  S
N3883      N3884   1.321       .  A
N3883      N3889   1.313       .  A
N3883     Mn3891   2.208   1_655  S
N3884      C3892   1.354       .  A
N3885      N3887   1.313       .  A
N3885      N3886   1.323       .  A
N3886      C3893   1.349       .  A
N3887      N3888   1.323       .  A
N3888      C3893   1.358       .  A
N3889      N3890   1.323       .  A
N3889     Mn3903   2.190       .  S
N3890      C3892   1.353       .  A
Mn3891    Cl3904   2.586   1_455  S
C3892      C3908   1.495       .  S
C3893      C3922   1.488       .  S
N3894      N3895   1.331       .  A
N3894      N3900   1.321       .  A
N3895      C3905   1.364       .  A
N3896      N3897   1.312       .  A
N3896      N3898   1.321       .  A
N3896     Mn3903   2.189       .  S
N3897      C3906   1.342       .  A
N3898      N3899   1.332       .  A
N3898     Mn3902   2.232       .  S
N3899      C3906   1.360       .  A
N3900      N3901   1.310       .  A
N3901      C3905   1.339       .  A
Mn3902    Cl3904   2.625       .  S
Mn3903    Cl3904   2.469       .  S
C3905      C4191   1.476       .  S
C3906      C4076   1.480       .  S
C3907      C3908   1.406       .  A
C3907      C3912   1.410       .  A
C3907      H3914   1.083       .  S
C3908      C3909   1.413       .  A
C3909      C3910   1.410       .  A
C3909      N3916   1.437       .  S
C3910      C3911   1.406       .  A
C3910      H3915   1.082       .  S
C3911      C3912   1.417       .  A
C3912      N3913   1.438       .  S
N3913      H3917   1.046       .  S
N3913      H3918   1.045       .  S
N3916      H3919   1.043       .  S
N3916      H3920   1.043   1_565  S
C3921      C3922   1.399       .  A
C3921      C3926   1.414       .  A
C3921      H3928   1.084       .  S
C3922      C3923   1.402       .  A
C3923      C3924   1.404       .  A
C3923      N3930   1.419       .  S
C3924      C3925   1.397       .  A
C3924      H3929   1.084       .  S
C3925      C3926   1.419       .  A
C3926      N3927   1.433       .  S
N3927      H3931   1.045       .  S
N3927      H3932   1.045       .  S
N3930      H3933   1.046       .  S
N3930      H3934   1.037       .  S
C3935      C3936   1.404       .  A
C3935      C3940   1.411       .  A
C3935      H3942   1.083       .  S
C3936      C3937   1.421       .  A
C3937      C3938   1.404       .  A
C3937      N3944   1.439       .  S
C3938      C3939   1.397       .  A
C3938      H3943   1.082       .  S
C3939      C3940   1.410       .  A
C3940      N3941   1.438       .  S
N3941      H3945   1.046       .  S
N3941      H3946   1.041       .  S
N3944      H3947   1.042       .  S
N3944      H3948   1.045       .  S
C3949      C3950   1.404       .  A
C3949      C3954   1.406       .  A
C3949      H3956   1.084       .  S
C3950      C3951   1.414       .  A
C3951      C3952   1.399       .  A
C3951      N3958   1.423       .  S
C3952      C3953   1.400       .  A
C3952      H3957   1.084       .  S
C3953      C3954   1.421       .  A
C3954      N3955   1.432       .  S
N3955      H3959   1.044       .  S
N3955      H3960   1.045       .  S
N3958      H3961   1.045       .  S
N3958      H3962   1.042       .  S
C3963      C3964   1.406       .  A
C3963      C3968   1.409       .  A
C3963      H3970   1.084       .  S
C3964      C3965   1.417       .  A
C3965      C3966   1.410       .  A
C3965      N3972   1.431       .  S
C3966      C3967   1.401       .  A
C3966      H3971   1.082       .  S
C3967      C3968   1.416       .  A
C3968      N3969   1.432       .  S
N3969      H3973   1.046       .  S
N3969      H3974   1.046       .  S
N3972      H3975   1.036   1_565  S
N3972      H3976   1.043   1_565  S
C3977      C3978   1.406       .  A
C3977      C3982   1.411       .  A
C3977      H3984   1.083       .  S
C3978      C3979   1.415       .  A
C3979      C3980   1.408       .  A
C3979      N3986   1.436       .  S
C3980      C3981   1.400       .  A
C3980      H3985   1.084       .  S
C3981      C3982   1.418       .  A
C3982      N3983   1.438       .  S
N3983      H3987   1.046       .  S
N3983      H3988   1.046       .  S
N3986      H3989   1.044       .  S
N3986      H3990   1.046   1_565  S
C3991      C3992   1.405       .  A
C3991      C3996   1.410       .  A
C3991      H3998   1.082       .  S
C3992      C3993   1.416       .  A
C3993      C3994   1.408       .  A
C3993      N4000   1.438       .  S
C3994      C3995   1.406       .  A
C3994      H3999   1.084       .  S
C3995      C3996   1.402       .  A
C3996      N3997   1.434       .  S
N3997      H4001   1.044       .  S
N3997      H4002   1.045       .  S
N4000      H4003   1.044       .  S
N4000      H4004   1.046       .  S
C4005      C4006   1.401       .  A
C4005      C4010   1.411       .  A
C4005      H4012   1.084       .  S
C4006      C4007   1.414       .  A
C4007      C4008   1.413       .  A
C4007      N4014   1.438       .  S
C4008      C4009   1.402       .  A
C4008      H4013   1.084       .  S
C4009      C4010   1.412       .  A
C4010      N4011   1.436       .  S
N4011      H4015   1.045       .  S
N4011      H4016   1.043       .  S
N4014      H4017   1.045       .  S
N4014      H4018   1.046       .  S
C4019      C4020   1.401       .  A
C4019      C4024   1.395       .  A
C4019      H4026   1.085       .  S
C4020      C4021   1.421       .  A
C4021      C4022   1.411       .  A
C4021      N4028   1.438       .  S
C4022      C4023   1.406       .  A
C4022      H4027   1.084       .  S
C4023      C4024   1.416       .  A
C4024      N4025   1.439       .  S
N4025      H4029   1.046       .  S
N4025      H4030   1.044       .  S
N4028      H4031   1.042       .  S
N4028      H4032   1.046       .  S
C4033      C4034   1.404       .  A
C4033      C4038   1.392       .  A
C4033      H4040   1.085       .  S
C4034      C4035   1.412       .  A
C4035      C4036   1.415       .  A
C4035      N4042   1.436       .  S
C4036      C4037   1.409       .  A
C4036      H4041   1.084       .  S
C4037      C4038   1.410       .  A
C4038      N4039   1.440       .  S
N4039      H4043   1.046       .  S
N4039      H4044   1.044       .  S
N4042      H4045   1.045       .  S
N4042      H4046   1.046       .  S
C4047      C4048   1.413       .  A
C4047      C4052   1.395       .  A
C4047      H4054   1.082       .  S
C4048      C4049   1.407       .  A
C4049      C4050   1.412       .  A
C4049      N4056   1.435       .  S
C4050      C4051   1.410       .  A
C4050      H4055   1.084       .  S
C4051      C4052   1.399       .  A
C4052      N4053   1.440       .  S
N4053      H4057   1.046       .  S
N4053      H4058   1.046       .  S
N4056      H4059   1.045       .  S
N4056      H4060   1.043       .  S
C4061      C4062   1.407       .  A
C4061      C4066   1.412       .  A
C4061      H4068   1.084       .  S
C4062      C4063   1.411       .  A
C4063      C4064   1.393       .  A
C4063      N4070   1.440       .  S
C4064      C4065   1.403       .  A
C4064      H4069   1.085       .  S
C4065      C4066   1.411       .  A
C4066      N4067   1.437       .  S
N4067      H4071   1.046       .  S
N4067      H4072   1.045       .  S
N4070      H4073   1.044       .  S
N4070      H4074   1.046       .  S
C4075      C4076   1.396       .  A
C4075      C4080   1.401       .  A
C4075      H4082   1.085       .  S
C4076      C4077   1.413       .  A
C4077      C4078   1.418       .  A
C4077      N4084   1.436       .  S
C4078      C4079   1.410       .  A
C4078      H4083   1.083       .  S
C4079      C4080   1.424       .  A
C4080      N4081   1.438       .  S
N4081      H4085   1.046       .  S
N4081      H4086   1.046       .  S
N4084      H4087   1.045       .  S
N4084      H4088   1.046       .  S
C4089      C4090   1.410       .  A
C4089      C4094   1.416       .  A
C4089      H4096   1.079       .  S
C4090      C4091   1.413       .  A
C4091      C4092   1.391       .  A
C4091      N4098   1.443       .  S
C4092      C4093   1.410       .  A
C4092      H4097   1.084       .  S
C4093      C4094   1.410       .  A
C4094      N4095   1.433       .  S
N4095      H4099   1.046       .  S
N4095      H4100   1.043       .  S
N4098      H4101   1.042       .  S
N4098      H4102   1.046       .  S
C4103      C4104   1.396       .  A
C4103      C4108   1.405       .  A
C4103      H4110   1.084       .  S
C4104      C4105   1.423       .  A
C4105      C4106   1.405       .  A
C4105      N4112   1.432       .  S
C4106      C4107   1.398       .  A
C4106      H4111   1.084       .  S
C4107      C4108   1.412       .  A
C4108      N4109   1.433       .  S
N4109      H4113   1.043   1_655  S
N4109      H4114   1.044       .  S
N4112      H4115   1.046       .  S
N4112      H4116   1.043       .  S
C4117      C4118   1.401       .  A
C4117      C4122   1.403       .  A
C4117      H4124   1.084       .  S
C4118      C4119   1.406       .  A
C4119      C4120   1.417       .  A
C4119      N4126   1.434       .  S
C4120      C4121   1.411       .  A
C4120      H4125   1.082       .  S
C4121      C4122   1.420       .  A
C4122      N4123   1.439       .  S
N4123      H4127   1.046       .  S
N4123      H4128   1.046       .  S
N4126      H4129   1.044       .  S
N4126      H4130   1.044       .  S
C4131      C4132   1.406       .  A
C4131      C4136   1.392       .  A
C4131      H4138   1.084       .  S
C4132      C4133   1.414       .  A
C4133      C4134   1.416       .  A
C4133      N4140   1.437       .  S
C4134      C4135   1.408       .  A
C4134      H4139   1.083       .  S
C4135      C4136   1.397       .  A
C4136      N4137   1.435       .  S
N4137      H4141   1.046       .  S
N4137      H4142   1.046       .  S
N4140      H4143   1.046       .  S
N4140      H4144   1.045       .  S
C4145      C4146   1.404       .  A
C4145      C4150   1.391       .  A
C4145      H4152   1.086       .  S
C4146      C4147   1.423       .  A
C4147      C4148   1.409       .  A
C4147      N4154   1.438       .  S
C4148      C4149   1.405       .  A
C4148      H4153   1.083       .  S
C4149      C4150   1.409       .  A
C4150      N4151   1.440       .  S
N4151      H4155   1.046       .  S
N4151      H4156   1.044       .  S
N4154      H4157   1.040       .  S
N4154      H4764   1.046       .  S
H4158      N4760   1.046       .  S
C4159      C4160   1.412       .  A
C4159      C4164   1.406       .  A
C4159      H4166   1.084       .  S
C4160      C4161   1.402       .  A
C4161      C4162   1.405       .  A
C4161      N4168   1.437       .  S
C4162      C4163   1.413       .  A
C4162      H4167   1.084       .  S
C4163      C4164   1.403       .  A
C4164      N4165   1.437       .  S
N4165      H4775   1.046       .  S
N4165      H4170   1.045       .  S
N4168      H4171   1.046       .  S
N4168      H4172   1.046       .  S
H4169      N4771   1.046       .  S
C4173      C4174   1.408       .  A
C4173      C4178   1.395       .  A
C4173      H4180   1.082       .  S
C4174      C4175   1.412       .  A
C4175      C4176   1.416       .  A
C4175      N4182   1.437       .  S
C4176      C4177   1.410       .  A
C4176      H4181   1.084       .  S
C4177      C4178   1.403       .  A
C4178      N4179   1.441       .  S
N4179      H4183   1.046       .  S
N4179      H4184   1.045       .  S
N4182      H4185   1.045       .  S
N4182      H4186   1.046       .  S
C4187      C4188   1.408       .  A
C4187      C4192   1.413       .  A
C4187      H4194   1.084       .  S
C4188      C4189   1.403       .  A
C4189      C4190   1.404       .  A
C4189      N4196   1.436       .  S
C4190      C4191   1.407       .  A
C4190      H4195   1.084       .  S
C4191      C4192   1.407       .  A
C4192      N4193   1.436       .  S
N4193      H4197   1.046       .  S
N4193      H4198   1.046       .  S
N4196      H4199   1.045       .  S
N4196      H4200   1.044       .  S
C4201      C4202   1.406       .  A
C4201      C4206   1.409       .  A
C4201      H4208   1.083       .  S
C4202      C4203   1.419       .  A
C4203      C4204   1.405       .  A
C4203      N4210   1.438       .  S
C4204      C4205   1.400       .  A
C4204      H4209   1.084       .  S
C4205      C4206   1.412       .  A
C4206      N4207   1.438       .  S
N4207      H4211   1.045       .  S
N4207      H4212   1.046       .  S
N4210      H4213   1.046       .  S
N4210      H4214   1.046       .  S
C4215      C4216   1.401       .  A
C4215      C4220   1.400       .  A
C4215      H4222   1.082       .  S
C4216      C4217   1.411       .  A
C4217      C4218   1.421       .  A
C4217      N4224   1.435       .  S
C4218      C4219   1.412       .  A
C4218      H4223   1.083       .  S
C4219      C4220   1.416       .  A
C4220      N4221   1.439       .  S
N4221      H4225   1.046       .  S
N4221      H4226   1.046       .  S
N4224      H4227   1.045       .  S
N4224      H4228   1.044       .  S
C4229      C4230   1.398       .  A
C4229      C4234   1.407       .  A
C4229      H4236   1.084       .  S
C4230      C4231   1.409       .  A
C4231      C4232   1.410       .  A
C4231      N4238   1.431       .  S
C4232      C4233   1.401       .  A
C4232      H4237   1.084       .  S
C4233      C4234   1.420       .  A
C4234      N4235   1.437       .  S
N4235      H4239   1.046       .  S
N4235      H4240   1.046       .  S
N4238      H4241   1.046       .  S
N4238      H4242   1.042       .  S
N4243      N4244   1.335       .  A
N4243      N4249   1.320       .  A
N4244      C4251   1.366       .  A
N4245      N4247   1.319       .  A
N4245      N4246   1.308       .  A
N4246      C4252   1.337       .  A
N4247      N4248   1.329       .  A
N4247     Mn4272   2.230   1_556  S
N4248      C4252   1.360       .  A
N4249      N4250   1.304       .  A
N4249     Mn4261   2.152       .  S
N4250      C4251   1.334       .  A
C4251      C4780   1.484       .  S
C4252      C4755   1.464       .  S
N4253      N4259   1.311       .  A
N4253      N4254   1.331       .  A
N4254      C4262   1.358       .  A
N4255      N4256   1.317       .  A
N4255      N4257   1.310       .  A
N4255     Mn4261   2.165       .  S
N4256      C4263   1.345       .  A
N4257      N4258   1.327       .  A
N4257     Mn4283   2.217       .  S
N4258      C4263   1.358       .  A
N4259      N4260   1.315       .  A
N4260      C4262   1.345       .  A
Mn4261    Cl4285   2.446       .  S
C4262      C4825   1.497       .  S
C4263      C4839   1.493       .  S
N4264      N4265   1.333       .  A
N4264      N4270   1.319       .  A
N4264     Mn4272   2.246   1_556  S
N4265      C4273   1.364       .  A
N4266      N4268   1.323       .  A
N4266      N4267   1.311       .  A
N4267      C4274   1.339       .  A
N4268      N4269   1.330       .  A
N4269      C4274   1.360       .  A
N4270      N4271   1.303       .  A
N4270     Mn4284   2.147   1_556  S
N4271      C4273   1.333       .  A
C4273      C4738   1.478       .  S
C4274      C4766   1.478       .  S
N4275      N4276   1.325       .  A
N4275      N4281   1.312       .  A
N4275     Mn4283   2.205       .  S
N4276      C4286   1.355       .  A
N4277      N4278   1.322       .  A
N4277      N4279   1.310       .  A
N4277     Mn4284   2.184   1_556  S
N4278      C4287   1.349       .  A
N4279      N4280   1.323       .  A
N4280      C4287   1.352       .  A
N4281      N4282   1.319       .  A
N4282      C4286   1.349       .  A
Mn4283    Cl4285   2.602       .  S
C4286      C4808   1.491       .  S
C4287      C4794   1.480       .  S
N4288      N4289   1.330       .  A
N4288      N4294   1.311       .  A
N4288     Mn4317   2.222       .  S
N4289      C4296   1.361       .  A
N4290      N4292   1.311       .  A
N4290      N4291   1.319       .  A
N4291      C4297   1.345       .  A
N4292      N4293   1.326       .  A
N4293      C4297   1.354       .  A
N4294      N4295   1.316       .  A
N4294     Mn4306   2.178       .  S
N4295      C4296   1.347       .  A
C4296      C4727   1.500       .  S
C4297      C4710   1.484       .  S
N4298      N4304   1.320       .  A
N4298      N4299   1.331       .  A
N4299      C4307   1.363       .  A
N4300      N4301   1.307       .  A
N4300      N4302   1.321       .  A
N4300     Mn4306   2.156       .  S
N4301      C4308   1.334       .  A
N4302      N4303   1.331       .  A
N4302     Mn4328   2.242       .  S
N4303      C4308   1.362       .  A
N4304      N4305   1.305       .  A
N4305      C4307   1.335       .  A
Mn4306    Cl4330   2.442       .  S
C4307      C4671   1.471       .  S
C4308      C4643   1.464       .  S
N4309      N4310   1.333       .  A
N4309      N4315   1.310       .  A
N4310      C4318   1.361       .  A
N4311      N4313   1.311       .  A
N4311      N4312   1.313       .  A
N4311     Mn4329   2.151       .  S
N4312      C4319   1.343       .  A
N4313      N4314   1.329       .  A
N4313     Mn4317   2.222       .  S
N4314      C4319   1.359       .  A
N4315      N4316   1.314       .  A
N4316      C4318   1.341       .  A
Mn4317    Cl4330   2.597       .  S
C4318      C4685   1.503       .  S
C4319      C4696   1.480       .  S
N4320      N4321   1.332       .  A
N4320      N4326   1.319       .  A
N4320     Mn4328   2.244       .  S
N4321      C4331   1.364       .  A
N4322      N4323   1.303       .  A
N4322      N4324   1.318       .  A
N4323      C4332   1.333       .  A
N4324      N4325   1.333       .  A
N4325      C4332   1.367       .  A
N4326      N4327   1.309       .  A
N4326     Mn4329   2.163       .  S
N4327      C4331   1.336       .  A
Mn4328    Cl4330   2.615       .  S
Mn4329    Cl4330   2.444       .  S
C4331      C4626   1.474       .  S
C4332      C4654   1.484       .  S
N4333      N4334   1.330       .  A
N4333      N4339   1.320       .  A
N4333     Mn4362   2.240       .  S
N4334      C4341   1.360       .  A
N4335      N4337   1.319       .  A
N4335      N4336   1.305       .  A
N4335     Mn4351   2.151       .  S
N4336      C4342   1.334       .  A
N4337      N4338   1.333       .  A
N4337     Mn4362   2.248       .  S
N4338      C4342   1.365       .  A
N4339      N4340   1.308       .  A
N4339     Mn4351   2.157       .  S
N4340      C4341   1.335       .  A
C4341      C4783   1.465       .  S
C4342      C4640   1.477       .  S
N4343      N4349   1.311       .  A
N4343      N4344   1.323       .  A
N4344      C4352   1.357       .  A
N4345      N4346   1.323       .  A
N4345      N4347   1.312       .  A
N4345     Mn4351   2.190       .  S
N4346      C4353   1.350       .  A
N4347      N4348   1.325       .  A
N4348      C4353   1.355       .  A
N4349      N4350   1.322       .  A
N4349     Mn4351   2.179       .  S
N4350      C4352   1.347       .  A
C4352      C4601   1.483       .  S
C4353      C4612   1.484       .  S
N4354      N4355   1.331       .  A
N4354      N4360   1.321       .  A
N4355      C4363   1.363       .  A
N4356      N4358   1.322       .  A
N4356      N4357   1.311       .  A
N4356     Mn4374   2.174       .  S
N4357      C4364   1.339       .  A
N4358      N4359   1.330       .  A
N4359      C4364   1.360       .  A
N4360      N4361   1.310       .  A
N4360     Mn4374   2.166       .  S
N4361      C4363   1.338       .  A
C4363      C4629   1.477       .  S
C4364      C4769   1.482       .  S
N4365      N4366   1.321       .  A
N4365      N4371   1.313       .  A
N4365     Mn4373   2.204   1_565  S
N4366      C4376   1.353       .  A
N4367      N4368   1.322       .  A
N4367      N4369   1.312       .  A
N4367     Mn4374   2.195       .  S
N4368      C4377   1.352       .  A
N4369      N4370   1.324       .  A
N4369     Mn4373   2.215   1_565  S
N4370      C4377   1.357       .  A
N4371      N4372   1.323       .  A
N4371     Mn4374   2.195       .  S
N4372      C4376   1.352       .  A
Mn4373    Cl4375   2.590       .  S
Mn4374    Cl4375   2.466   1_565  S
C4376      C4584   1.495       .  S
C4377      C4570   1.502       .  S
N4378      N4379   1.325       .  A
N4378      N4384   1.312       .  A
N4378     Mn4407   2.226       .  S
N4379      C4386   1.358       .  A
N4380      N4382   1.314       .  A
N4380      N4381   1.320       .  A
N4380     Mn4396   2.172       .  S
N4381      C4387   1.344       .  A
N4382      N4383   1.326       .  A
N4382     Mn4407   2.227       .  S
N4383      C4387   1.357       .  A
N4384      N4385   1.322       .  A
N4384     Mn4396   2.182       .  S
N4385      C4386   1.350       .  A
C4386      C4556   1.494       .  S
C4387      C4545   1.480       .  S
N4388      N4394   1.318       .  A
N4388      N4389   1.329       .  A
N4388     Mn4418   2.227       .  S
N4389      C4397   1.359       .  A
N4390      N4391   1.306       .  A
N4390      N4392   1.320       .  A
N4390     Mn4396   2.156       .  S
N4391      C4398   1.337       .  A
N4392      N4393   1.330       .  A
N4392     Mn4418   2.238       .  S
N4393      C4398   1.362       .  A
N4394      N4395   1.308       .  A
N4394     Mn4396   2.161       .  S
N4395      C4397   1.337       .  A
Mn4396    Cl4420   2.476       .  S
C4397      C4668   1.462       .  S
C4398      C4752   1.475       .  S
N4399      N4400   1.326       .  A
N4399      N4405   1.311       .  A
N4400      C4408   1.359       .  A
N4401      N4403   1.313       .  A
N4401      N4402   1.319       .  A
N4401     Mn4419   2.178       .  S
N4402      C4409   1.348       .  A
N4403      N4404   1.325       .  A
N4404      C4409   1.359       .  A
N4405      N4406   1.320       .  A
N4405     Mn4419   2.188       .  S
N4406      C4408   1.351       .  A
Mn4407    Cl4420   2.576       .  S
C4408      C4517   1.498       .  S
C4409      C4531   1.489       .  S
N4410      N4411   1.329       .  A
N4410      N4416   1.321       .  A
N4411      C4421   1.357       .  A
N4412      N4413   1.307       .  A
N4412      N4414   1.320       .  A
N4412     Mn4419   2.150       .  S
N4413      C4422   1.334       .  A
N4414      N4415   1.329       .  A
N4415      C4422   1.359       .  A
N4416      N4417   1.310       .  A
N4416     Mn4419   2.174       .  S
N4417      C4421   1.338       .  A
Mn4418    Cl4420   2.611       .  S
C4421      C4741   1.463       .  S
C4422      C4657   1.458       .  S
N4423      N4424   1.329       .  A
N4423      N4429   1.321       .  A
N4424      C4431   1.361       .  A
N4425      N4427   1.320       .  A
N4425      N4426   1.310       .  A
N4426      C4432   1.340       .  A
N4427      N4428   1.331       .  A
N4427     Mn4452   2.255       .  S
N4428      C4432   1.365       .  A
N4429      N4430   1.313       .  A
N4429     Mn4441   2.188       .  S
N4430      C4431   1.342       .  A
C4431      C4836   1.477       .  S
C4432      C4724   1.483       .  S
N4433      N4439   1.313       .  A
N4433      N4434   1.325       .  A
N4434      C4442   1.355       .  A
N4435      N4436   1.322       .  A
N4435      N4437   1.313       .  A
N4435     Mn4441   2.190       .  S
N4436      C4443   1.350       .  A
N4437      N4438   1.326       .  A
N4437     Mn4463   2.228       .  S
N4438      C4443   1.357       .  A
N4439      N4440   1.322       .  A
N4440      C4442   1.350       .  A
Mn4441    Cl4465   2.481       .  S
C4442      C4598   1.484       .  S
C4443      C4615   1.485       .  S
N4444      N4445   1.329       .  A
N4444      N4450   1.320       .  A
N4444     Mn4452   2.244       .  S
N4445      C4453   1.362       .  A
N4446      N4448   1.318       .  A
N4446      N4447   1.308       .  A
N4446     Mn4464   2.176       .  S
N4447      C4454   1.341       .  A
N4448      N4449   1.335       .  A
N4449      C4454   1.366       .  A
N4450      N4451   1.312       .  A
N4451      C4453   1.342       .  A
C4453      C4713   1.476       .  S
C4454      C4822   1.490       .  S
N4455      N4456   1.323       .  A
N4455      N4461   1.312       .  A
N4455     Mn4463   2.206       .  S
N4456      C4466   1.354       .  A
N4457      N4458   1.321       .  A
N4457      N4459   1.312       .  A
N4458      C4467   1.349       .  A
N4459      N4460   1.325       .  A
N4460      C4467   1.356       .  A
N4461      N4462   1.322       .  A
N4461     Mn4464   2.195       .  S
N4462      C4466   1.351       .  A
Mn4463    Cl4465   2.593       .  S
Mn4464    Cl4465   2.473       .  S
C4466      C4559   1.490       .  S
C4467      C4542   1.483       .  S
N4468      N4469   1.324       .  A
N4468      N4474   1.311       .  A
N4469      C4476   1.361       .  A
N4470      N4472   1.311       .  A
N4470      N4471   1.321       .  A
N4470     Mn4486   2.187       .  S
N4471      C4477   1.350       .  A
N4472      N4473   1.325       .  A
N4472     Mn4497   2.216   1_655  S
N4473      C4477   1.358       .  A
N4474      N4475   1.319       .  A
N4475      C4476   1.350       .  A
C4476      C4587   1.494       .  S
C4477      C4573   1.496       .  S
N4478      N4484   1.315       .  A
N4478      N4479   1.336       .  A
N4478     Mn4508   2.264       .  S
N4479      C4487   1.372       .  A
N4480      N4481   1.313       .  A
N4480      N4482   1.320       .  A
N4481      C4488   1.342       .  A
N4482      N4483   1.328       .  A
N4483      C4488   1.359       .  A
N4484      N4485   1.302       .  A
N4484     Mn4486   2.149       .  S
N4485      C4487   1.336       .  A
Mn4486    Cl4510   2.463       .  S
C4487      C4699   1.497       .  S
C4488      C4811   1.473       .  S
N4489      N4490   1.321       .  A
N4489      N4495   1.313       .  A
N4489     Mn4497   2.208   1_655  S
N4490      C4498   1.354       .  A
N4491      N4493   1.313       .  A
N4491      N4492   1.323       .  A
N4492      C4499   1.349       .  A
N4493      N4494   1.323       .  A
N4494      C4499   1.358       .  A
N4495      N4496   1.323       .  A
N4495     Mn4509   2.190       .  S
N4496      C4498   1.353       .  A
Mn4497    Cl4510   2.586   1_455  S
C4498      C4514   1.495       .  S
C4499      C4528   1.488       .  S
N4500      N4501   1.331       .  A
N4500      N4506   1.321       .  A
N4501      C4511   1.364       .  A
N4502      N4503   1.312       .  A
N4502      N4504   1.321       .  A
N4502     Mn4509   2.189       .  S
N4503      C4512   1.342       .  A
N4504      N4505   1.332       .  A
N4504     Mn4508   2.232       .  S
N4505      C4512   1.360       .  A
N4506      N4507   1.310       .  A
N4507      C4511   1.339       .  A
Mn4508    Cl4510   2.625       .  S
Mn4509    Cl4510   2.469       .  S
C4511      C4797   1.476       .  S
C4512      C4682   1.480       .  S
C4513      C4514   1.406       .  A
C4513      C4518   1.410       .  A
C4513      H4520   1.083       .  S
C4514      C4515   1.413       .  A
C4515      C4516   1.410       .  A
C4515      N4522   1.437       .  S
C4516      C4517   1.406       .  A
C4516      H4521   1.082       .  S
C4517      C4518   1.417       .  A
C4518      N4519   1.438       .  S
N4519      H4523   1.046       .  S
N4519      H4524   1.045       .  S
N4522      H4525   1.043       .  S
N4522      H4526   1.043   1_565  S
C4527      C4528   1.399       .  A
C4527      C4532   1.414       .  A
C4527      H4534   1.084       .  S
C4528      C4529   1.402       .  A
C4529      C4530   1.404       .  A
C4529      N4536   1.419       .  S
C4530      C4531   1.397       .  A
C4530      H4535   1.084       .  S
C4531      C4532   1.419       .  A
C4532      N4533   1.433       .  S
N4533      H4537   1.045       .  S
N4533      H4538   1.045       .  S
N4536      H4539   1.046       .  S
N4536      H4540   1.037       .  S
C4541      C4542   1.404       .  A
C4541      C4546   1.411       .  A
C4541      H4548   1.083       .  S
C4542      C4543   1.421       .  A
C4543      C4544   1.404       .  A
C4543      N4550   1.439       .  S
C4544      C4545   1.397       .  A
C4544      H4549   1.082       .  S
C4545      C4546   1.410       .  A
C4546      N4547   1.438       .  S
N4547      H4551   1.046       .  S
N4547      H4552   1.041       .  S
N4550      H4553   1.042       .  S
N4550      H4554   1.045       .  S
C4555      C4556   1.404       .  A
C4555      C4560   1.406       .  A
C4555      H4562   1.084       .  S
C4556      C4557   1.414       .  A
C4557      C4558   1.399       .  A
C4557      N4564   1.423       .  S
C4558      C4559   1.400       .  A
C4558      H4563   1.084       .  S
C4559      C4560   1.421       .  A
C4560      N4561   1.432       .  S
N4561      H4565   1.044       .  S
N4561      H4566   1.045       .  S
N4564      H4567   1.045       .  S
N4564      H4568   1.042       .  S
C4569      C4570   1.406       .  A
C4569      C4574   1.409       .  A
C4569      H4576   1.084       .  S
C4570      C4571   1.417       .  A
C4571      C4572   1.410       .  A
C4571      N4578   1.431       .  S
C4572      C4573   1.401       .  A
C4572      H4577   1.082       .  S
C4573      C4574   1.416       .  A
C4574      N4575   1.432       .  S
N4575      H4579   1.046       .  S
N4575      H4580   1.046       .  S
N4578      H4581   1.035   1_565  S
N4578      H4582   1.043   1_565  S
C4583      C4584   1.406       .  A
C4583      C4588   1.411       .  A
C4583      H4590   1.083       .  S
C4584      C4585   1.415       .  A
C4585      C4586   1.408       .  A
C4585      N4592   1.436       .  S
C4586      C4587   1.400       .  A
C4586      H4591   1.084       .  S
C4587      C4588   1.418       .  A
C4588      N4589   1.438       .  S
N4589      H4593   1.046       .  S
N4589      H4594   1.046       .  S
N4592      H4595   1.044       .  S
N4592      H4596   1.046   1_565  S
C4597      C4598   1.405       .  A
C4597      C4602   1.410       .  A
C4597      H4604   1.082       .  S
C4598      C4599   1.416       .  A
C4599      C4600   1.408       .  A
C4599      N4606   1.438       .  S
C4600      C4601   1.406       .  A
C4600      H4605   1.084       .  S
C4601      C4602   1.402       .  A
C4602      N4603   1.434       .  S
N4603      H4607   1.044       .  S
N4603      H4608   1.045       .  S
N4606      H4609   1.044       .  S
N4606      H4610   1.046       .  S
C4611      C4612   1.401       .  A
C4611      C4616   1.411       .  A
C4611      H4618   1.084       .  S
C4612      C4613   1.414       .  A
C4613      C4614   1.413       .  A
C4613      N4620   1.438       .  S
C4614      C4615   1.402       .  A
C4614      H4619   1.084       .  S
C4615      C4616   1.412       .  A
C4616      N4617   1.436       .  S
N4617      H4621   1.045       .  S
N4617      H4622   1.043       .  S
N4620      H4623   1.045       .  S
N4620      H4624   1.046       .  S
C4625      C4626   1.401       .  A
C4625      C4630   1.395       .  A
C4625      H4632   1.085       .  S
C4626      C4627   1.421       .  A
C4627      C4628   1.411       .  A
C4627      N4634   1.438       .  S
C4628      C4629   1.406       .  A
C4628      H4633   1.084       .  S
C4629      C4630   1.416       .  A
C4630      N4631   1.439       .  S
N4631      H4635   1.046       .  S
N4631      H4636   1.044       .  S
N4634      H4637   1.042       .  S
N4634      H4638   1.046       .  S
C4639      C4640   1.404       .  A
C4639      C4644   1.392       .  A
C4639      H4646   1.085       .  S
C4640      C4641   1.412       .  A
C4641      C4642   1.415       .  A
C4641      N4648   1.436       .  S
C4642      C4643   1.409       .  A
C4642      H4647   1.084       .  S
C4643      C4644   1.410       .  A
C4644      N4645   1.440       .  S
N4645      H4649   1.046       .  S
N4645      H4650   1.044       .  S
N4648      H4651   1.045       .  S
N4648      H4652   1.046       .  S
C4653      C4654   1.413       .  A
C4653      C4658   1.395       .  A
C4653      H4660   1.082       .  S
C4654      C4655   1.407       .  A
C4655      C4656   1.412       .  A
C4655      N4662   1.435       .  S
C4656      C4657   1.410       .  A
C4656      H4661   1.084       .  S
C4657      C4658   1.399       .  A
C4658      N4659   1.440       .  S
N4659      H4663   1.046       .  S
N4659      H4664   1.046       .  S
N4662      H4665   1.045       .  S
N4662      H4666   1.043       .  S
C4667      C4668   1.407       .  A
C4667      C4672   1.412       .  A
C4667      H4674   1.084       .  S
C4668      C4669   1.411       .  A
C4669      C4670   1.393       .  A
C4669      N4676   1.440       .  S
C4670      C4671   1.403       .  A
C4670      H4675   1.085       .  S
C4671      C4672   1.411       .  A
C4672      N4673   1.437       .  S
N4673      H4677   1.046       .  S
N4673      H4678   1.045       .  S
N4676      H4679   1.044       .  S
N4676      H4680   1.046       .  S
C4681      C4682   1.396       .  A
C4681      C4686   1.401       .  A
C4681      H4688   1.085       .  S
C4682      C4683   1.413       .  A
C4683      C4684   1.418       .  A
C4683      N4690   1.436       .  S
C4684      C4685   1.410       .  A
C4684      H4689   1.083       .  S
C4685      C4686   1.424       .  A
C4686      N4687   1.438       .  S
N4687      H4691   1.046       .  S
N4687      H4692   1.046       .  S
N4690      H4693   1.045       .  S
N4690      H4694   1.046       .  S
C4695      C4696   1.410       .  A
C4695      C4700   1.416       .  A
C4695      H4702   1.079       .  S
C4696      C4697   1.413       .  A
C4697      C4698   1.391       .  A
C4697      N4704   1.443       .  S
C4698      C4699   1.410       .  A
C4698      H4703   1.084       .  S
C4699      C4700   1.410       .  A
C4700      N4701   1.433       .  S
N4701      H4705   1.046       .  S
N4701      H4706   1.043       .  S
N4704      H4707   1.042       .  S
N4704      H4708   1.046       .  S
C4709      C4710   1.396       .  A
C4709      C4714   1.405       .  A
C4709      H4716   1.084       .  S
C4710      C4711   1.423       .  A
C4711      C4712   1.405       .  A
C4711      N4718   1.432       .  S
C4712      C4713   1.398       .  A
C4712      H4717   1.084       .  S
C4713      C4714   1.412       .  A
C4714      N4715   1.433       .  S
N4715      H4719   1.043   1_655  S
N4715      H4720   1.044       .  S
N4718      H4721   1.046       .  S
N4718      H4722   1.043       .  S
C4723      C4724   1.401       .  A
C4723      C4728   1.403       .  A
C4723      H4730   1.084       .  S
C4724      C4725   1.406       .  A
C4725      C4726   1.417       .  A
C4725      N4732   1.434       .  S
C4726      C4727   1.411       .  A
C4726      H4731   1.082       .  S
C4727      C4728   1.420       .  A
C4728      N4729   1.439       .  S
N4729      H4733   1.046       .  S
N4729      H4734   1.046       .  S
N4732      H4735   1.044       .  S
N4732      H4736   1.044       .  S
C4737      C4738   1.406       .  A
C4737      C4742   1.392       .  A
C4737      H4744   1.084       .  S
C4738      C4739   1.414       .  A
C4739      C4740   1.416       .  A
C4739      N4746   1.437       .  S
C4740      C4741   1.408       .  A
C4740      H4745   1.083       .  S
C4741      C4742   1.397       .  A
C4742      N4743   1.435       .  S
N4743      H4747   1.046       .  S
N4743      H4748   1.046       .  S
N4746      H4749   1.046       .  S
N4746      H4750   1.045       .  S
C4751      C4752   1.404       .  A
C4751      C4756   1.391       .  A
C4751      H4758   1.086       .  S
C4752      C4753   1.423       .  A
C4753      C4754   1.409       .  A
C4753      N4760   1.438       .  S
C4754      C4755   1.405       .  A
C4754      H4759   1.083       .  S
C4755      C4756   1.409       .  A
C4756      N4757   1.440       .  S
N4757      H4761   1.046       .  S
N4757      H4762   1.044       .  S
N4760      H4763   1.040       .  S
C4765      C4766   1.412       .  A
C4765      C4770   1.406       .  A
C4765      H4772   1.084       .  S
C4766      C4767   1.402       .  A
C4767      C4768   1.405       .  A
C4767      N4774   1.437       .  S
C4768      C4769   1.413       .  A
C4768      H4773   1.084       .  S
C4769      C4770   1.403       .  A
C4770      N4771   1.437       .  S
N4771      H4776   1.045       .  S
N4774      H4777   1.046       .  S
N4774      H4778   1.046       .  S
C4779      C4780   1.408       .  A
C4779      C4784   1.395       .  A
C4779      H4786   1.082       .  S
C4780      C4781   1.412       .  A
C4781      C4782   1.416       .  A
C4781      N4788   1.437       .  S
C4782      C4783   1.410       .  A
C4782      H4787   1.084       .  S
C4783      C4784   1.403       .  A
C4784      N4785   1.441       .  S
N4785      H4789   1.046       .  S
N4785      H4790   1.045       .  S
N4788      H4791   1.045       .  S
N4788      H4792   1.046       .  S
C4793      C4794   1.408       .  A
C4793      C4798   1.413       .  A
C4793      H4800   1.084       .  S
C4794      C4795   1.403       .  A
C4795      C4796   1.404       .  A
C4795      N4802   1.436       .  S
C4796      C4797   1.407       .  A
C4796      H4801   1.084       .  S
C4797      C4798   1.407       .  A
C4798      N4799   1.436       .  S
N4799      H4803   1.046       .  S
N4799      H4804   1.046       .  S
N4802      H4805   1.045       .  S
N4802      H4806   1.044       .  S
C4807      C4808   1.406       .  A
C4807      C4812   1.409       .  A
C4807      H4814   1.083       .  S
C4808      C4809   1.419       .  A
C4809      C4810   1.405       .  A
C4809      N4816   1.438       .  S
C4810      C4811   1.400       .  A
C4810      H4815   1.084       .  S
C4811      C4812   1.412       .  A
C4812      N4813   1.438       .  S
N4813      H4817   1.045       .  S
N4813      H4818   1.046       .  S
N4816      H4819   1.046       .  S
N4816      H4820   1.046       .  S
C4821      C4822   1.401       .  A
C4821      C4826   1.400       .  A
C4821      H4828   1.082       .  S
C4822      C4823   1.411       .  A
C4823      C4824   1.421       .  A
C4823      N4830   1.435       .  S
C4824      C4825   1.412       .  A
C4824      H4829   1.083       .  S
C4825      C4826   1.416       .  A
C4826      N4827   1.439       .  S
N4827      H4831   1.046       .  S
N4827      H4832   1.046       .  S
N4830      H4833   1.045       .  S
N4830      H4834   1.044       .  S
C4835      C4836   1.398       .  A
C4835      C4840   1.407       .  A
C4835      H4842   1.084       .  S
C4836      C4837   1.409       .  A
C4837      C4838   1.410       .  A
C4837      N4844   1.431       .  S
C4838      C4839   1.401       .  A
C4838      H4843   1.084       .  S
C4839      C4840   1.420       .  A
C4840      N4841   1.437       .  S
N4841      H4845   1.046       .  S
N4841      H4846   1.046       .  S
N4844      H4847   1.046       .  S
N4844      H4848   1.042       .  S
