geometry optimzed in LAMMPS
_audit_creation_date              2020-11-30 
_audit_creation_method            'lammps2cif' 
_symmetry_space_group_name_H-M    'P1' 
_symmetry_Int_Tables_number       1 
_symmetry_cell_setting            triclinic 
loop_ 
_symmetry_equiv_pos_as_xyz 
  x,y,z 
_cell_length_a                    44.89763329 
_cell_length_b                    44.6643651828427 
_cell_length_c                    44.729966612587575 
_cell_angle_alpha                 89.83162267762081 
_cell_angle_beta                  90.1327350688765 
_cell_angle_gamma                 89.85310912648283 
loop_ 
_atom_site_label 
_atom_site_type_symbol 
_atom_site_fract_x 
_atom_site_fract_y 
_atom_site_fract_z 
_atom_site_charge 
C1          C  0.97645893  0.26469589  0.22857440     0.79900
N2          N  0.98069881  0.28642713  0.24932474    -0.78400
C3          C  0.98032836  0.27987759  0.27891155     0.82400
N4          N  0.97528133  0.25134022  0.28757846    -0.78300
C5          C  0.97104766  0.22922457  0.26732111     0.82500
N6          N  0.97174776  0.23578806  0.23748065    -0.80100
O7          O  0.01450368  0.46616225  0.42374093    -0.80400
O8          O  0.01919667  0.46444769  0.59508421    -0.82000
O9          O  0.06144188  0.42718691  0.51039175    -0.79000
O10         O  0.96499810  0.43171488  0.50875674    -0.77400
O11         O  0.92965411  0.46857502  0.51213479    -0.79200
O12         O  0.09916315  0.46143933  0.50786752    -0.80100
O13         O  0.01499505  0.43100599  0.55682290    -0.81400
O14         O  0.01306632  0.43044257  0.46031946    -0.81700
Eu15       Eu  0.01418009  0.45529422  0.50890125     2.39200
O16         O  0.98524078  0.48554032  0.54093642    -0.89200
O17         O  0.04592911  0.48286422  0.47780850    -0.92800
C18         C  0.01320651  0.43865840  0.43267103     1.01800
C19         C  0.01839236  0.43744599  0.58455327     1.01700
C20         C  0.08928389  0.43435953  0.50958214     1.01600
C21         C  0.93775105  0.44074887  0.51035600     0.99500
H22         H  0.05817618  0.47077207  0.55157554     0.29200
O23         O  0.04582193  0.48377084  0.53948583    -1.01600
H24         H  0.97127145  0.47465819  0.46699769     0.29200
O25         O  0.98436882  0.48653198  0.47932951    -1.04200
O26         O  0.02966034  0.56334268  0.59368049    -0.81400
O27         O  0.01993420  0.56256549  0.42391641    -0.80900
O28         O  0.10213958  0.51197871  0.55678469    -0.79400
O29         O  0.93128141  0.52083259  0.55987418    -0.82700
O30         O  0.93011040  0.52034146  0.46210075    -0.80600
O31         O  0.10263906  0.51198206  0.45977303    -0.79200
O32         O  0.07083637  0.59876841  0.51304646    -0.80700
O33         O  0.97018955  0.60434256  0.51309574    -0.82700
O34         O  0.10392599  0.55968371  0.51155222    -0.79400
O35         O  0.93480803  0.56764470  0.51286163    -0.82100
O36         O  0.06736454  0.51541077  0.59400782    -0.77800
O37         O  0.06585030  0.51469810  0.42440655    -0.77800
O38         O  0.96596488  0.51870747  0.42587232    -0.77500
O39         O  0.96735479  0.52009988  0.59603937    -0.81000
O40         O  0.03171115  0.59990059  0.55777022    -0.80400
O41         O  0.02372379  0.60074187  0.45760718    -0.78700
Eu42       Eu  0.01707046  0.51488413  0.57093293     2.39800
Eu43       Eu  0.01610979  0.51504542  0.44899470     2.39600
Eu44       Eu  0.07697902  0.51208004  0.50824689     2.38400
Eu45       Eu  0.95622361  0.51764356  0.51087189     2.39900
Eu46       Eu  0.01941276  0.57748692  0.50882925     2.39800
O47         O  0.98748651  0.54697570  0.47978369    -0.93200
O48         O  0.04656950  0.54279460  0.53767993    -0.92000
C49         C  0.03534099  0.59031277  0.58486168     1.02000
C50         C  0.02371343  0.59026160  0.43050557     1.00700
C51         C  0.09456390  0.51419262  0.58447589     1.00100
C52         C  0.93968369  0.52180295  0.58751915     1.02100
C53         C  0.93842980  0.52024439  0.43441804     1.01100
C54         C  0.09362107  0.51368143  0.43242217     0.99900
C55         C  0.09765469  0.58781163  0.51360032     1.00000
C56         C  0.94267095  0.59532482  0.51405267     1.02600
H57         H  0.06117652  0.55636024  0.46630107     0.29900
O58         O  0.04791063  0.54472166  0.47865916    -1.05300
H59         H  0.97727285  0.56067888  0.55331660     0.32000
O60         O  0.98852675  0.54760714  0.54040578    -1.07900
C61         C  0.01232542  0.71001876  0.74879938     0.79900
N62         N  0.99716504  0.72801238  0.72911310    -0.78400
C63         C  0.01273313  0.74513598  0.70914376     0.82400
N64         N  0.04281803  0.74269337  0.70807842    -0.78300
C65         C  0.05802411  0.72400536  0.72656397     0.82500
N66         N  0.04240834  0.70813924  0.74707668    -0.80100
C67         C  0.00778525  0.23149601  0.74721864     0.79900
N68         N  0.02260982  0.25376163  0.73333099    -0.78400
C69         C  0.03047651  0.25185973  0.70442947     0.82400
N70         N  0.02360305  0.22668634  0.68907518    -0.78300
C71         C  0.00907946  0.20345388  0.70230000     0.82500
N72         N  0.00037088  0.20607641  0.73165502    -0.80100
C73         C  0.99636384  0.70613030  0.19965582     0.79900
N74         N  0.01382880  0.69353904  0.22120509    -0.78400
C75         C  0.02334059  0.70967651  0.24502118     0.82400
N76         N  0.01495582  0.73856881  0.24715756    -0.78300
C77         C  0.99696504  0.75154479  0.22654026     0.82500
N78         N  0.98703967  0.73516173  0.20275792    -0.80100
O79         O  0.98531831  0.02261928  0.38592022    -0.80400
O80         O  0.98210004  0.01088357  0.55826450    -0.82000
O81         O  0.93733372  0.05192205  0.47070389    -0.79000
O82         O  0.03285653  0.05220602  0.47828549    -0.77400
O83         O  0.06935253  0.01652379  0.47736153    -0.79200
O84         O  0.90036014  0.01753197  0.46375140    -0.80100
O85         O  0.98390904  0.04859304  0.52362266    -0.81400
O86         O  0.98288875  0.05555711  0.42489470    -0.81700
Eu87       Eu  0.98464046  0.02741290  0.47285479     2.39200
O88         O  0.01212669  0.99469811  0.50267592    -0.89200
O89         O  0.95517174  0.99992659  0.43942291    -0.92800
C90         C  0.98310349  0.04927442  0.39663814     1.01800
C91         C  0.98338198  0.03897422  0.55091975     1.01700
C92         C  0.91018758  0.04460069  0.46573763     1.01600
C93         C  0.06035109  0.04390477  0.47976884     0.99500
H94         H  0.93950549  0.00763569  0.51273552     0.29200
O95         O  0.95241032  0.99575114  0.50019178    -1.01600
H96         H  0.02937433  0.01425034  0.43067511     0.29200
O97         O  0.01659190  0.00067114  0.44147663    -1.04200
O98         O  0.97965167  0.91119066  0.54953275    -0.81400
O99         O  0.98835041  0.92589102  0.37956501    -0.80900
O100        O  0.89616254  0.96412878  0.51498762    -0.79400
O101        O  0.06610386  0.96941429  0.52278686    -0.82700
O102        O  0.07095047  0.97076182  0.42434499    -0.80600
O103        O  0.90152108  0.96753931  0.41537029    -0.79200
O104        O  0.93636766  0.88343345  0.45293136    -0.80700
O105        O  0.03464672  0.88226044  0.45887688    -0.82700
O106        O  0.90017560  0.91955098  0.45483521    -0.79400
O107        O  0.06864604  0.91951983  0.46624073    -0.82100
O108        O  0.93059853  0.96073420  0.55267001    -0.77800
O109        O  0.93924206  0.97158337  0.38116489    -0.77800
O110        O  0.03695988  0.97445185  0.38626064    -0.77500
O111        O  0.02896963  0.96528789  0.55750232    -0.81000
O112        O  0.98186435  0.87703744  0.51148691    -0.80400
O113        O  0.98491404  0.88641427  0.41213924    -0.78700
Eu114      Eu  0.98101337  0.96274414  0.53001855     2.39800
Eu115      Eu  0.98712983  0.97250525  0.40826059     2.39600
Eu116      Eu  0.92355658  0.96757742  0.46636588     2.38400
Eu117      Eu  0.04430725  0.96782647  0.47208551     2.39900
Eu118      Eu  0.98502068  0.90624792  0.46417169     2.39800
O119        O  0.01590801  0.93978253  0.43798930    -0.93200
O120        O  0.95266704  0.93426412  0.49556779    -0.92000
C121        C  0.97992686  0.88406804  0.53951911     1.02000
C122        C  0.98644702  0.89767572  0.38543253     1.00700
C123        C  0.90337791  0.96183746  0.54305874     1.00100
C124        C  0.05658908  0.96885314  0.55008143     1.02100
C125        C  0.06380462  0.97301039  0.39645625     1.01100
C126        C  0.91150649  0.96877121  0.38823939     0.99900
C127        C  0.90924557  0.89264405  0.44954791     1.00000
C128        C  0.06164580  0.89226003  0.46010050     1.02600
H129        H  0.94542737  0.92937841  0.42134211     0.29900
O130        O  0.95669408  0.94045978  0.43596155    -1.05300
H131        H  0.02570123  0.92119196  0.51101110     0.32000
O132        O  0.01345304  0.93442404  0.49897315    -1.07900
C133        C  0.22293510  0.25796710  0.51523415     0.79900
N134        N  0.20201921  0.23592441  0.51407765    -0.78400
C135        C  0.20973963  0.20734847  0.50759700     0.82400
N136        N  0.23859287  0.20093681  0.50240995    -0.78300
C137        C  0.26001859  0.22208355  0.50366301     0.82500
N138        N  0.25232364  0.25109223  0.51005639    -0.80100
C139        C  0.74689336  0.24363312  0.50923905     0.79900
N140        N  0.75979194  0.22069552  0.49451739    -0.78400
C141        C  0.78675661  0.22353764  0.48197367     0.82400
N142        N  0.80122337  0.24973448  0.48442018    -0.78300
C143        C  0.78925039  0.27344252  0.49892265     0.82500
N144        N  0.76159694  0.27052029  0.51187418    -0.80100
C145        C  0.73558098  0.77145125  0.49358114     0.79900
N146        N  0.75129761  0.75100958  0.51017764    -0.78400
C147        C  0.77093147  0.73222909  0.49619922     0.82400
N148        N  0.77580275  0.73522519  0.46648577    -0.78300
C149        C  0.76144519  0.75622170  0.45001283     0.82500
N150        N  0.74116536  0.77394466  0.46385130    -0.80100
C151        C  0.25419065  0.73649707  0.50306501     0.79900
N152        N  0.23667290  0.74652098  0.48051487    -0.78400
C153        C  0.24059376  0.77384128  0.46820065     0.82400
N154        N  0.26277428  0.79150363  0.47883053    -0.78300
C155        C  0.28112962  0.78184511  0.50112135     0.82500
N156        N  0.27648945  0.75430316  0.51382698    -0.80100
C157        C  0.71182513  0.95907096  0.20961071     0.79900
N158        N  0.69716475  0.97117866  0.23332070    -0.78400
C159        C  0.71146407  0.97664007  0.25938086     0.82400
N160        N  0.74050336  0.96983797  0.26174314    -0.78300
C161        C  0.75573974  0.95764816  0.23885026     0.82500
N162        N  0.74147965  0.95188361  0.21236088    -0.80100
O163        O  0.46412248  0.09924529  0.50874397    -0.80400
O164        O  0.46882448  0.92764763  0.52086809    -0.82000
O165        O  0.43117773  0.00957730  0.46370924    -0.79000
O166        O  0.43000393  0.01964163  0.55997323    -0.77400
O167        O  0.46442803  0.02227819  0.59767034    -0.79200
O168        O  0.46759256  0.00924681  0.42816700    -0.80100
O169        O  0.43194100  0.96296152  0.51772332    -0.81400
O170        O  0.42966761  0.06155062  0.50743650    -0.81700
Eu171      Eu  0.45528061  0.01260108  0.51280054     2.39200
O172        O  0.48515037  0.98450814  0.54639158    -0.89200
O173        O  0.48443697  0.04249124  0.48126297    -0.92800
C174        C  0.43716100  0.08951007  0.50719576     1.01800
C175        C  0.44102384  0.93556713  0.52025176     1.01700
C176        C  0.44000316  0.00926441  0.43629001     1.01600
C177        C  0.43754715  0.02360813  0.58744196     0.99500
H178        H  0.47472952  0.96682122  0.47388433     0.29200
O179        O  0.48651105  0.98048840  0.48566670    -1.01600
H180        H  0.47123209  0.05855743  0.55311524     0.29200
O181        O  0.48412508  0.04515136  0.54205520    -1.04200
O182        O  0.56807811  0.93156961  0.52176738    -0.81400
O183        O  0.56089898  0.10267317  0.51288146    -0.80900
O184        O  0.51996236  0.95832994  0.43418434    -0.79400
O185        O  0.51789325  0.96902526  0.60443183    -0.82700
O186        O  0.51359468  0.06790768  0.59743061    -0.80600
O187        O  0.51775746  0.05836407  0.42695100    -0.79200
O188        O  0.60081468  0.01781126  0.46605019    -0.80700
O189        O  0.59795497  0.03085953  0.56330206    -0.82700
O190        O  0.56401469  0.01217184  0.43106100    -0.79400
O191        O  0.56140792  0.03071990  0.59876466    -0.82100
O192        O  0.52009210  0.92430697  0.47254713    -0.77800
O193        O  0.51499271  0.09714425  0.46025539    -0.77800
O194        O  0.51111646  0.10170506  0.55882933    -0.77500
O195        O  0.51941580  0.93230320  0.56910645    -0.81000
O196        O  0.60333149  0.96848855  0.52007621    -0.80400
O197        O  0.59861108  0.06823088  0.51626039    -0.78700
Eu198      Eu  0.51770022  0.95372268  0.51884725     2.39800
Eu199      Eu  0.51329292  0.07527910  0.51069393     2.39600
Eu200      Eu  0.51580126  0.01027401  0.45431310     2.38400
Eu201      Eu  0.51417917  0.01723925  0.57551445     2.39900
Eu202      Eu  0.57629152  0.01703978  0.51526911     2.39800
O203        O  0.54294719  0.04637674  0.54269850    -0.93200
O204        O  0.54714693  0.98346939  0.48699968    -0.92000
C205        C  0.59542171  0.94063745  0.52208371     1.02000
C206        C  0.58869943  0.09552662  0.51533483     1.00700
C207        C  0.52099886  0.93112933  0.44449930     1.00100
C208        C  0.51949252  0.94109226  0.59652999     1.02100
C209        C  0.51214024  0.09485239  0.58687543     1.01100
C210        C  0.51742519  0.08655838  0.43355722     0.99900
C211        C  0.59131720  0.01585727  0.43885169     1.00000
C212        C  0.58821799  0.03577289  0.58992232     1.02600
H213        H  0.55699973  0.05635992  0.47006922     0.29900
O214        O  0.54483072  0.04395618  0.48280092    -1.05300
H215        H  0.55995061  0.97621431  0.56117755     0.32000
O216        O  0.54711708  0.98690107  0.54770423    -1.07900
C217        C  0.24452802  0.99029812  0.75019873     0.79900
N218        N  0.21895235  0.98537559  0.73387426    -0.78400
C219        C  0.21541880  0.99990715  0.70687320     0.82400
N220        N  0.23748787  0.01824964  0.69713201    -0.78300
C221        C  0.26265354  0.02268483  0.71299886     0.82500
N222        N  0.26586259  0.00858347  0.73935913    -0.80100
C223        C  0.71462762  0.98461190  0.74305087     0.79900
N224        N  0.73476521  0.97163491  0.72386932    -0.78400
C225        C  0.75213639  0.98963401  0.70601252     0.82400
N226        N  0.74805620  0.01974875  0.70683580    -0.78300
C227        C  0.72779457  0.03265510  0.72519895     0.82500
N228        N  0.71145455  0.01475331  0.74319856    -0.80100
C229        C  0.27643421  0.98525559  0.22866305     0.79900
N230        N  0.29515018  0.99710421  0.24927481    -0.78400
C231        C  0.28539789  0.00462005  0.27682900     0.82400
N232        N  0.25659593  0.99968979  0.28383423    -0.78300
C233        C  0.23745682  0.98789669  0.26360506     0.82500
N234        N  0.24733699  0.98028028  0.23582589    -0.80100
O235        O  0.56857381  0.96300642  0.01737465    -0.80400
O236        O  0.39834200  0.97086854  0.02624590    -0.82000
O237        O  0.48842165  0.01669137  0.05969576    -0.79000
O238        O  0.47730981  0.92024669  0.05439035    -0.77400
O239        O  0.47227003  0.88265649  0.02049424    -0.79200
O240        O  0.48716419  0.05349473  0.02412080    -0.80100
O241        O  0.43618692  0.96693751  0.06036926    -0.81400
O242        O  0.53420805  0.96176301  0.05502021    -0.81700
Eu243      Eu  0.48397739  0.96907034  0.03296990     2.39200
O244        O  0.45104547  0.94121084  0.00343850    -0.89200
O245        O  0.51418670  0.99896134  0.00251489    -0.92800
C246        C  0.56133967  0.96047281  0.04527996     1.01800
C247        C  0.40826099  0.96780621  0.05317692     1.01700
C248        C  0.48927391  0.04437341  0.05139497     1.01600
C249        C  0.47248855  0.89281015  0.04761261     0.99500
H250        H  0.44167944  0.01480620  0.01965400     0.29200
O251        O  0.45291324  0.00223063  0.00621306    -1.01600
H252        H  0.52324960  0.92381083  0.01195557     0.29200
O253        O  0.51098051  0.93750766  0.00059208    -1.04200
O254        O  0.39335817  0.97380311  0.92800409    -0.81400
O255        O  0.56266235  0.96716361  0.91930955    -0.80900
O256        O  0.43512709  0.05795593  0.97425135    -0.79400
O257        O  0.42595315  0.88815991  0.97098493    -0.82700
O258        O  0.52639406  0.88274941  0.96477193    -0.80600
O259        O  0.53389880  0.05352350  0.97375431    -0.79200
O260        O  0.47151475  0.02430973  0.89012436    -0.80700
O261        O  0.46544473  0.92605619  0.88675664    -0.82700
O262        O  0.47822123  0.05777667  0.92807071    -0.79400
O263        O  0.46526746  0.88875600  0.92199100    -0.82100
O264        O  0.39739547  0.02365670  0.97622027    -0.77800
O265        O  0.56860280  0.01615517  0.96946677    -0.77800
O266        O  0.56260641  0.91868145  0.96421927    -0.77500
O267        O  0.39282900  0.92691443  0.97618451    -0.81000
O268        O  0.42654275  0.97184579  0.88920682    -0.80400
O269        O  0.52559274  0.96983685  0.88425247    -0.78700
Eu270      Eu  0.42036184  0.97399223  0.97618805     2.39800
Eu271      Eu  0.54076342  0.96824492  0.96952539     2.39600
Eu272      Eu  0.48342487  0.03110044  0.97472366     2.38400
Eu273      Eu  0.47745789  0.90909249  0.97138720     2.39900
Eu274      Eu  0.47723855  0.97322084  0.91158939     2.39800
O275        O  0.50724344  0.93988287  0.94001841    -0.93200
O276        O  0.45034932  0.00349021  0.94498338    -0.92000
C277        C  0.39976773  0.97230587  0.89988322     1.02000
C278        C  0.55341581  0.96763900  0.89195560     1.00700
C279        C  0.40723949  0.05066824  0.97456280     1.00100
C280        C  0.39920909  0.89893894  0.97331158     1.02100
C281        C  0.55397463  0.89126164  0.96255454     1.01100
C282        C  0.56112050  0.04404277  0.97180505     0.99900
C283        C  0.47240052  0.05124687  0.90071243     1.00000
C284        C  0.46042982  0.89895240  0.89536273     1.02600
H285        H  0.52284891  0.01372127  0.92841094     0.29900
O286        O  0.51072199  0.00124343  0.94111161    -1.05300
H287        H  0.43366952  0.93305989  0.93313011     0.32000
O288        O  0.44838447  0.94388104  0.94443665    -1.07900
C289        C  0.52992875  0.21576406  0.25459508     0.79900
N290        N  0.52458020  0.19524508  0.23306770    -0.78400
C291        C  0.52154887  0.20322000  0.20416588     0.82400
N292        N  0.52421634  0.23238299  0.19659832    -0.78300
C293        C  0.52925310  0.25354829  0.21777267     0.82500
N294        N  0.53210315  0.24536872  0.24713953    -0.80100
C295        C  0.50979505  0.73536009  0.25241309     0.79900
N296        N  0.49250545  0.74900549  0.23178076    -0.78400
C297        C  0.48227775  0.77706490  0.23545574     0.82400
N298        N  0.48923158  0.79184668  0.26104017    -0.78300
C299        C  0.50579835  0.77834883  0.28289544     0.82500
N300        N  0.51697432  0.75011493  0.27821631    -0.80100
C301        C  0.48454955  0.73714008  0.77616588     0.79900
N302        N  0.50116533  0.75365860  0.75661358    -0.78400
C303        C  0.48722154  0.77349660  0.73789598     0.82400
N304        N  0.45737049  0.77749297  0.73987219    -0.78300
C305        C  0.44076219  0.76191457  0.75977802     0.82500
N306        N  0.45472555  0.74176687  0.77773407    -0.80100
C307        C  0.49196403  0.24667163  0.74016717     0.79900
N308        N  0.47226368  0.22684378  0.75159602    -0.78400
C309        C  0.46073248  0.23041835  0.77915294     0.82400
N310        N  0.46931374  0.25433606  0.79552555    -0.78300
C311        C  0.48885679  0.27477441  0.78470745     0.82500
N312        N  0.50079470  0.27076569  0.75682869    -0.80100
O313        O  0.98554868  0.38510021  0.02349809    -0.80400
O314        O  0.97602141  0.55665045  0.01501152    -0.82000
O315        O  0.02729114  0.47353220  0.05754935    -0.79000
O316        O  0.93100296  0.46680422  0.05397141    -0.77400
O317        O  0.89485241  0.46356368  0.01796424    -0.79200
O318        O  0.06404661  0.47335859  0.02231758    -0.80100
O319        O  0.97440462  0.52221750  0.05294344    -0.81400
O320        O  0.98116668  0.42282787  0.05782830    -0.81700
Eu321      Eu  0.97955642  0.47144827  0.03104963     2.39200
O322        O  0.94897765  0.49907175  0.99813116    -0.89200
O323        O  0.01239914  0.44120000  0.00372088    -0.92800
C324        C  0.98343842  0.39492714  0.05045213     1.01800
C325        C  0.97414833  0.54950425  0.04299653     1.01700
C326        C  0.05489469  0.47377784  0.04958408     1.01600
C327        C  0.90380500  0.46352157  0.04553173     0.99500
H328        H  0.02100515  0.51604299  0.01316242     0.29200
O329        O  0.00953243  0.50240289  0.00098865    -1.01600
H330        H  0.93970680  0.42496563  0.01369734     0.29200
O331        O  0.95170440  0.43801160  0.00133298    -1.04200
O332        O  0.97821197  0.55094955  0.91726326    -0.81400
O333        O  0.98769947  0.38039528  0.92634250    -0.80900
O334        O  0.06501424  0.52189879  0.96914048    -0.79400
O335        O  0.89357095  0.51485928  0.96250050    -0.82700
O336        O  0.89962798  0.41400924  0.96588352    -0.80600
O337        O  0.06861870  0.42441393  0.97403486    -0.79200
O338        O  0.03493813  0.46148320  0.88683909    -0.80700
O339        O  0.93771781  0.45333190  0.88456630    -0.82700
O340        O  0.06677017  0.46811791  0.92603760    -0.79400
O341        O  0.90060039  0.45347624  0.91953027    -0.82100
O342        O  0.02780606  0.55670737  0.96595190    -0.77800
O343        O  0.03504004  0.38599736  0.97635588    -0.77800
O344        O  0.93808051  0.38045311  0.97043168    -0.77500
O345        O  0.92967390  0.55085252  0.96360749    -0.81000
O346        O  0.98092320  0.51417160  0.88187850    -0.80400
O347        O  0.98509760  0.41396102  0.88760487    -0.78700
Eu348      Eu  0.97946531  0.52909494  0.96730344     2.39800
Eu349      Eu  0.98501803  0.40807431  0.97373237     2.39600
Eu350      Eu  0.04131988  0.47206681  0.97289644     2.38400
Eu351      Eu  0.92062622  0.46577642  0.96874575     2.39900
Eu352      Eu  0.98453649  0.46542243  0.90914852     2.39800
O353        O  0.95510560  0.43679630  0.94178074    -0.93200
O354        O  0.01198708  0.49930287  0.93884923    -0.92000
C355        C  0.97877808  0.54200749  0.88989057     1.02000
C356        C  0.98668452  0.38697943  0.89824577     1.00700
C357        C  0.05574996  0.54926822  0.96678563     1.00100
C358        C  0.90221327  0.54262869  0.96184113     1.02100
C359        C  0.91029230  0.38698870  0.96702064     1.01100
C360        C  0.06177977  0.39637703  0.97517312     0.99900
C361        C  0.06134089  0.46290607  0.89838632     1.00000
C362        C  0.91065701  0.44893777  0.89294003     1.02600
H363        H  0.02778073  0.42542598  0.93181502     0.29900
O364        O  0.01448133  0.43835185  0.94288939    -1.05300
H365        H  0.93873092  0.50643041  0.92381580     0.32000
O366        O  0.95132535  0.49554658  0.93742483    -1.07900
C367        C  0.78626306  0.49518878  0.27270372     0.79900
N368        N  0.79795125  0.47869183  0.24996902    -0.78400
C369        C  0.78083169  0.46937702  0.22687580     0.82400
N370        N  0.75170056  0.47654363  0.22664991    -0.78300
C371        C  0.73939041  0.49300825  0.24872275     0.82500
N372        N  0.75676697  0.50308167  0.27174344    -0.80100
C373        C  0.26274820  0.49107992  0.22119845     0.79900
N374        N  0.25505573  0.50056529  0.24930856    -0.78400
C375        C  0.22558453  0.50522743  0.25588240     0.82400
N376        N  0.20467413  0.50068502  0.23443904    -0.78300
C377        C  0.21211651  0.49141676  0.20674859     0.82500
N378        N  0.24112304  0.48662188  0.20039184    -0.80100
C379        C  0.28393598  0.50610010  0.77848413     0.79900
N380        N  0.26588117  0.48576003  0.79189609    -0.78400
C381        C  0.24010832  0.47684637  0.77898214     0.82400
N382        N  0.23207670  0.48896258  0.75252979    -0.78300
C383        C  0.24925999  0.50955246  0.73865065     0.82500
N384        N  0.27540357  0.51866148  0.75172050    -0.80100
C385        C  0.77850923  0.50844242  0.73771085     0.79900
N386        N  0.76121877  0.52286739  0.75839138    -0.78400
C387        C  0.74580503  0.50628453  0.77901212     0.82400
N388        N  0.74917042  0.47609871  0.77967223    -0.78300
C389        C  0.76667872  0.46173959  0.75969046     0.82500
N390        N  0.78094985  0.47825138  0.73876246    -0.80100
C391        C  0.23893854  0.26468853  0.97329536     0.79900
N392        N  0.24589803  0.23504717  0.97014033    -0.78400
C393        C  0.27501346  0.22630809  0.97266750     0.82400
N394        N  0.29643676  0.24698348  0.97816070    -0.78300
C395        C  0.28959709  0.27620253  0.98108830     0.82500
N396        N  0.26087604  0.28483587  0.97843431    -0.80100
O397        O  0.51280303  0.45777756  0.09696495    -0.80400
O398        O  0.52012086  0.46763472  0.92570880    -0.82000
O399        O  0.47203365  0.42563830  0.00933254    -0.79000
O400        O  0.56831011  0.43112936  0.01451698    -0.77400
O401        O  0.60458829  0.46656905  0.01971064    -0.79200
O402        O  0.43504576  0.46086739  0.00821156    -0.80100
O403        O  0.51922082  0.43079760  0.96117809    -0.81400
O404        O  0.51777904  0.42447350  0.05851201    -0.81700
Eu405      Eu  0.51899178  0.45284758  0.01141517     2.39200
O406        O  0.55057963  0.48459681  0.98381144    -0.89200
O407        O  0.48599523  0.47955444  0.04185648    -0.92800
C408        C  0.51539115  0.43096797  0.08651833     1.01800
C409        C  0.51898933  0.43976432  0.93369370     1.01700
C410        C  0.44446045  0.43353244  0.00786207     1.01600
C411        C  0.59550719  0.43920687  0.01852322     0.99500
H412        H  0.47761444  0.47136522  0.96768700     0.29200
O413        O  0.48924356  0.48349440  0.98115858    -1.01600
H414        H  0.55879621  0.46900642  0.05773794     0.29200
O415        O  0.54681974  0.48178783  0.04504709    -1.04200
O416        O  0.52047163  0.56575424  0.93212702    -0.81400
O417        O  0.51463495  0.55559326  0.10367501    -0.80900
O418        O  0.43518650  0.51346970  0.96017759    -0.79400
O419        O  0.60475227  0.51940159  0.96949946    -0.82700
O420        O  0.59882738  0.51540840  0.06938321    -0.80600
O421        O  0.42992931  0.50464491  0.05960783    -0.79200
O422        O  0.46497665  0.59627161  0.02297079    -0.80700
O423        O  0.56262889  0.60057604  0.02365017    -0.82700
O424        O  0.43124555  0.55827358  0.01787552    -0.79400
O425        O  0.59892082  0.56462119  0.02391165    -0.82100
O426        O  0.47258495  0.51532986  0.92555594    -0.77800
O427        O  0.46392439  0.50689625  0.09779153    -0.77800
O428        O  0.56062155  0.50839156  0.10255686    -0.77500
O429        O  0.57017199  0.52023313  0.93182323    -0.81000
O430        O  0.51709542  0.60060162  0.96942203    -0.80400
O431        O  0.51843135  0.59425386  0.07023278    -0.78700
Eu432      Eu  0.52008846  0.51564174  0.95377698     2.39800
Eu433      Eu  0.51363969  0.50872539  0.07528171     2.39600
Eu434      Eu  0.45687387  0.51095315  0.01150568     2.38400
Eu435      Eu  0.57776913  0.51459222  0.01784025     2.39900
Eu436      Eu  0.51511716  0.57387159  0.01832912     2.39800
O437        O  0.54420939  0.54145536  0.04781552    -0.93200
O438        O  0.48751264  0.54416551  0.98427712    -0.92000
C439        C  0.51936264  0.59296301  0.94155171     1.02000
C440        C  0.51751407  0.58361267  0.09724877     1.00700
C441        C  0.44472119  0.51457613  0.93280761     1.00100
C442        C  0.59728450  0.52131662  0.94153029     1.02100
C443        C  0.58831260  0.51201664  0.09613521     1.01100
C444        C  0.43712232  0.50457952  0.08768145     0.99900
C445        C  0.43815220  0.58576275  0.02286216     1.00000
C446        C  0.59004056  0.59203527  0.02587412     1.02600
H447        H  0.47158594  0.55140137  0.05853792     0.29900
O448        O  0.48453597  0.54044883  0.04526582    -1.05300
H449        H  0.56009706  0.55912772  0.97680405     0.32000
O450        O  0.54744813  0.54550924  0.98776600    -1.07900
C451        C  0.72250860  0.74980985  0.96175192     0.79900
N452        N  0.74239146  0.73185025  0.94691978    -0.78400
C453        C  0.76106010  0.71367436  0.96325386     0.82400
N454        N  0.75823683  0.71236132  0.99340925    -0.78300
C455        C  0.73779619  0.72914129  0.00799760     0.82500
N456        N  0.72057316  0.74806355  0.99184990    -0.80100
C457        C  0.24289931  0.74995737  0.98217313     0.79900
N458        N  0.26284023  0.73711412  0.00090185    -0.78400
C459        C  0.25976601  0.70865186  0.01037429     0.82400
N460        N  0.23601538  0.69268834  0.00086947    -0.78300
C461        C  0.21527404  0.70492560  0.98226063     0.82500
N462        N  0.21890668  0.73379408  0.97227320    -0.80100
C463        C  0.75739987  0.23612440  0.97325788     0.79900
N464        N  0.74462372  0.26002861  0.98650204    -0.78400
C465        C  0.71749031  0.25827744  0.99888883     0.82400
N466        N  0.70272770  0.23202693  0.99783664    -0.78300
C467        C  0.71465804  0.20729995  0.98481330     0.82500
N468        N  0.74249555  0.20926596  0.97210898    -0.80100
C469        C  0.71312293  0.36813076  0.00635716    -0.18100
C470        C  0.69581878  0.39409588  0.00886507    -0.20300
C471        C  0.66580253  0.39217845  0.01727470     0.20300
C472        C  0.65366971  0.36399157  0.02496345    -0.03200
C473        C  0.67109153  0.33793155  0.02260445    -0.06300
C474        C  0.70066062  0.33993880  0.01235281     0.20600
C475        C  0.65833281  0.30970884  0.02883342     0.18800
C476        C  0.62885098  0.30786015  0.03880047    -0.17800
C477        C  0.61151244  0.33364525  0.04087459    -0.20000
C478        C  0.62358792  0.36156730  0.03336607     0.20300
C479        C  0.60554902  0.38682048  0.03256262    -0.33000
C480        C  0.61679135  0.41456839  0.02298918     0.01000
C481        C  0.64724259  0.41753966  0.01660772    -0.24300
C482        C  0.71659322  0.31363751  0.00660707    -0.28900
C483        C  0.70310971  0.28545583  0.01062508     0.06600
C484        C  0.67456462  0.28369086  0.02313793    -0.27600
H485        H  0.73593793  0.37000627  0.99874317     0.11400
H486        H  0.70559669  0.41552001  0.00318791     0.12500
H487        H  0.61883617  0.28637131  0.04378094     0.11600
H488        H  0.58833425  0.33160786  0.04722580     0.10800
H489        H  0.58222325  0.38450612  0.03827154     0.16200
H490        H  0.65604107  0.43901664  0.00959499     0.12100
H491        H  0.73883137  0.31522496  0.99736036     0.15000
H492        H  0.66423535  0.26207685  0.02680896     0.14700
C493        C  0.30674823  0.61609296  0.04636219    -0.18100
C494        C  0.33246680  0.59847744  0.04722741    -0.20300
C495        C  0.36036262  0.61130958  0.04142032     0.20300
C496        C  0.36281541  0.64243366  0.03704660    -0.03200
C497        C  0.33692011  0.66021768  0.03643307    -0.06300
C498        C  0.30868134  0.64675254  0.03986785     0.20600
C499        C  0.33915621  0.69105055  0.03016222     0.18800
C500        C  0.36728541  0.70420420  0.02655022    -0.17800
C501        C  0.39299641  0.68652692  0.02710865    -0.20000
C502        C  0.39088709  0.65548978  0.03128424     0.20300
C503        C  0.41599204  0.63708681  0.02799731    -0.33000
C504        C  0.41309505  0.60586879  0.02990155     0.01000
C505        C  0.38553714  0.59331475  0.03811864    -0.24300
C506        C  0.28292437  0.66362813  0.03435076    -0.28900
C507        C  0.28517758  0.69363234  0.02516634     0.06600
C508        C  0.31323010  0.70769941  0.02520417    -0.27600
H509        H  0.28527961  0.60550277  0.04943525     0.11400
H510        H  0.33039255  0.57460208  0.05104690     0.12500
H511        H  0.36930567  0.72794169  0.02193745     0.11600
H512        H  0.41437819  0.69694536  0.02302070     0.10800
H513        H  0.43732062  0.64691917  0.02239509     0.16200
H514        H  0.38331370  0.56928473  0.04079882     0.12100
H515        H  0.26135166  0.65278932  0.03493941     0.15000
H516        H  0.31525065  0.73098518  0.01863502     0.14700
C517        C  0.62179872  0.69705701  0.04335026    -0.18100
C518        C  0.64464764  0.71799451  0.04702579    -0.20300
C519        C  0.67445431  0.70853509  0.04840749     0.20300
C520        C  0.68116618  0.67767658  0.04855037    -0.03200
C521        C  0.65819347  0.65662539  0.04487831    -0.06300
C522        C  0.62844349  0.66638427  0.04129226     0.20600
C523        C  0.66530503  0.62597248  0.04282123     0.18800
C524        C  0.69491559  0.61643197  0.04632436    -0.17800
C525        C  0.71772829  0.63734058  0.04962711    -0.20000
C526        C  0.71115925  0.66802899  0.04940297     0.20300
C527        C  0.73386650  0.68909267  0.04549927    -0.33000
C528        C  0.72611397  0.71846171  0.03711926     0.01000
C529        C  0.69770732  0.72912608  0.04522383    -0.24300
C530        C  0.60609335  0.64537232  0.03488978    -0.28900
C531        C  0.61323274  0.61477359  0.03202380     0.06600
C532        C  0.64289385  0.60538396  0.03639022    -0.27600
H533        H  0.59907090  0.70494020  0.04098881     0.11400
H534        H  0.63915464  0.74163629  0.04689395     0.12500
H535        H  0.70057716  0.59286355  0.04520726     0.11600
H536        H  0.74060216  0.62957684  0.05045758     0.10800
H537        H  0.75644754  0.68118861  0.04195823     0.16200
H538        H  0.69220152  0.75250496  0.04149434     0.12100
H539        H  0.58329872  0.65287661  0.03190256     0.15000
H540        H  0.64877474  0.58190928  0.03459446     0.14700
C541        C  0.39334947  0.30455243  0.00620264    -0.18100
C542        C  0.41493132  0.32671769  0.01053376    -0.20300
C543        C  0.40798113  0.35698769  0.00545139     0.20300
C544        C  0.37909857  0.36495727  0.99573680    -0.03200
C545        C  0.35740599  0.34268120  0.99138923    -0.06300
C546        C  0.36447227  0.31233354  0.99679538     0.20600
C547        C  0.32852053  0.35088639  0.98191914     0.18800
C548        C  0.32165959  0.38100824  0.97634583    -0.17800
C549        C  0.34312518  0.40305261  0.98065221    -0.20000
C550        C  0.37175246  0.39525538  0.99052204     0.20300
C551        C  0.39312170  0.41734922  0.99514892    -0.33000
C552        C  0.42198600  0.40973770  0.00464807     0.01000
C553        C  0.42932071  0.37946508  0.00981102    -0.24300
C554        C  0.34237102  0.29046656  0.99309268    -0.28900
C555        C  0.31329315  0.29875854  0.98446319     0.06600
C556        C  0.30676029  0.32894338  0.97854697    -0.27600
H557        H  0.39917582  0.28136052  0.01041839     0.11400
H558        H  0.43701596  0.32020044  0.01794890     0.12500
H559        H  0.29958781  0.38755135  0.96892038     0.11600
H560        H  0.33728512  0.42623736  0.97641367     0.10800
H561        H  0.38730905  0.44053851  0.99081732     0.16200
H562        H  0.45155770  0.37339412  0.01717688     0.12100
H563        H  0.34764979  0.26715692  0.99744327     0.15000
H564        H  0.28461196  0.33549267  0.97131766     0.14700
C565        C  0.62950005  0.54782639  0.83862830    -0.18100
C566        C  0.65085363  0.54704060  0.81581651    -0.20300
C567        C  0.67967961  0.53612756  0.82147637     0.20300
C568        C  0.68722487  0.52670162  0.85075294    -0.03200
C569        C  0.66557366  0.52727849  0.87375141    -0.06300
C570        C  0.63646590  0.53750662  0.86753236     0.20600
C571        C  0.67275002  0.51652594  0.90263190     0.18800
C572        C  0.70166316  0.50592706  0.90841398    -0.17800
C573        C  0.72304764  0.50529905  0.88568414    -0.20000
C574        C  0.71593332  0.51524805  0.85671234     0.20300
C575        C  0.73637225  0.51211337  0.83320650    -0.33000
C576        C  0.72845086  0.51975979  0.80365622     0.01000
C577        C  0.70044364  0.53273299  0.79808546    -0.24300
C578        C  0.61459255  0.53629126  0.89000605    -0.28900
C579        C  0.62129058  0.52481594  0.91871295     0.06600
C580        C  0.65069205  0.51562978  0.92494620    -0.27600
H581        H  0.60727827  0.55585635  0.83346040     0.11400
H582        H  0.64459460  0.55434474  0.79354742     0.12500
H583        H  0.70758064  0.49753139  0.93039603     0.11600
H584        H  0.74496893  0.49632023  0.89059768     0.10800
H585        H  0.75775936  0.50154515  0.83745876     0.16200
H586        H  0.69397741  0.53787543  0.77527280     0.12100
H587        H  0.59215713  0.54381468  0.88494924     0.15000
H588        H  0.65617737  0.50673768  0.94685699     0.14700
C589        C  0.31970876  0.53612306  0.87674150    -0.18100
C590        C  0.34152729  0.53465534  0.89904673    -0.20300
C591        C  0.37066851  0.52566586  0.89218752     0.20300
C592        C  0.37805364  0.51858595  0.86236982    -0.03200
C593        C  0.35578498  0.51963160  0.83978691    -0.06300
C594        C  0.32647294  0.52820470  0.84718938     0.20600
C595        C  0.36253145  0.51107140  0.81015461     0.18800
C596        C  0.39197383  0.50280119  0.80325663    -0.17800
C597        C  0.41420242  0.50243102  0.82550138    -0.20000
C598        C  0.40743630  0.50991225  0.85528482     0.20300
C599        C  0.42930923  0.50869549  0.87814765    -0.33000
C600        C  0.42195357  0.51545735  0.90817609     0.01000
C601        C  0.39239982  0.52365992  0.91475856    -0.24300
C602        C  0.30396699  0.52706961  0.82541756    -0.28900
C603        C  0.30983188  0.51666069  0.79635601     0.06600
C604        C  0.33941831  0.50947965  0.78854039    -0.27600
H605        H  0.29729251  0.54275573  0.88278357     0.11400
H606        H  0.33552061  0.54035920  0.92177931     0.12500
H607        H  0.39775640  0.49622949  0.78070297     0.11600
H608        H  0.43661760  0.49577840  0.81948088     0.10800
H609        H  0.45189349  0.50214347  0.87262594     0.16200
H610        H  0.38630447  0.52906366  0.93754979     0.12100
H611        H  0.28118752  0.53214364  0.83171738     0.15000
H612        H  0.34404474  0.50076690  0.76644038     0.14700
C613        C  0.36214102  0.53387560  0.20066716    -0.18100
C614        C  0.38584241  0.53666113  0.18043704    -0.20300
C615        C  0.38886543  0.51661424  0.15645691     0.20300
C616        C  0.36851651  0.49277048  0.15362215    -0.03200
C617        C  0.34511281  0.48948017  0.17452324    -0.06300
C618        C  0.34127847  0.51067481  0.19763981     0.20600
C619        C  0.32466385  0.46582389  0.17132303     0.18800
C620        C  0.32826615  0.44510874  0.14806042    -0.17800
C621        C  0.35104608  0.44867917  0.12710355    -0.20000
C622        C  0.37091211  0.47275205  0.12932001     0.20300
C623        C  0.39285567  0.47733833  0.10745877    -0.33000
C624        C  0.41317987  0.50101160  0.11008785     0.01000
C625        C  0.41147231  0.52022915  0.13496071    -0.24300
C626        C  0.31563331  0.50939432  0.21588454    -0.28900
C627        C  0.29399279  0.48715014  0.21106714     0.06600
C628        C  0.29971697  0.46448948  0.19000040    -0.27600
H629        H  0.35976510  0.55027797  0.21830263     0.11400
H630        H  0.40134985  0.55501757  0.18307591     0.12500
H631        H  0.31276868  0.42674359  0.14541232     0.11600
H632        H  0.35279822  0.43289126  0.10884045     0.10800
H633        H  0.39452683  0.46216197  0.08864822     0.16200
H634        H  0.42731229  0.53838411  0.13713681     0.12100
H635        H  0.31130598  0.52705828  0.23187260     0.15000
H636        H  0.28320156  0.44719827  0.18628659     0.14700
C637        C  0.62216936  0.46635870  0.19055847    -0.18100
C638        C  0.64198885  0.46512446  0.21471689    -0.20300
C639        C  0.66396399  0.48714573  0.21821690     0.20300
C640        C  0.66539509  0.51113574  0.19763066    -0.03200
C641        C  0.64599368  0.51187687  0.17271287    -0.06300
C642        C  0.62438773  0.48928694  0.16916025     0.20600
C643        C  0.64891568  0.53459525  0.15084471     0.18800
C644        C  0.67032435  0.55707969  0.15484108    -0.17800
C645        C  0.68930319  0.55654664  0.17972509    -0.20000
C646        C  0.68740282  0.53337261  0.20091906     0.20300
C647        C  0.70879250  0.53056310  0.22371932    -0.33000
C648        C  0.70963379  0.50485881  0.24191994     0.01000
C649        C  0.68612032  0.48419626  0.24027602    -0.24300
C650        C  0.60574409  0.48969779  0.14399719    -0.28900
C651        C  0.60903708  0.51174601  0.12176178     0.06600
C652        C  0.63064549  0.53416437  0.12524541    -0.27600
H653        H  0.60564035  0.44888717  0.18814514     0.11400
H654        H  0.64057022  0.44655088  0.23028126     0.12500
H655        H  0.67274834  0.57480459  0.13844099     0.11600
H656        H  0.70616978  0.57372078  0.18184740     0.10800
H657        H  0.72739438  0.54600682  0.22430294     0.16200
H658        H  0.68716913  0.46392786  0.25366027     0.12100
H659        H  0.58894595  0.47248571  0.14135569     0.15000
H660        H  0.63278370  0.55150435  0.10836926     0.14700
C661        C  0.86207053  0.67546925  0.96580792    -0.18100
C662        C  0.88110804  0.65080534  0.96838076    -0.20300
C663        C  0.87086557  0.62187506  0.96190064     0.20300
C664        C  0.84128981  0.61769033  0.95230090    -0.03200
C665        C  0.82197778  0.64275399  0.94958481    -0.06300
C666        C  0.83241986  0.67169142  0.95668913     0.20600
C667        C  0.79197816  0.63873631  0.94107049     0.18800
C668        C  0.78189561  0.60967923  0.93448898    -0.17800
C669        C  0.80113475  0.58486923  0.93689907    -0.20000
C670        C  0.83087655  0.58849171  0.94613069     0.20300
C671        C  0.85033443  0.56360959  0.94951195    -0.33000
C672        C  0.88008972  0.56774855  0.95897702     0.01000
C673        C  0.88981105  0.59714831  0.96515429    -0.24300
C674        C  0.81263422  0.69609286  0.95650787    -0.28900
C675        C  0.78230742  0.69214171  0.94990452     0.06600
C676        C  0.77229032  0.66352273  0.94120607    -0.27600
H677        H  0.87041012  0.69747293  0.97151324     0.11400
H678        H  0.90382062  0.65433693  0.97579855     0.12500
H679        H  0.75893790  0.60604810  0.92795995     0.11600
H680        H  0.79259316  0.56276448  0.93194238     0.10800
H681        H  0.84244271  0.54125643  0.94455751     0.16200
H682        H  0.91242289  0.60101903  0.97273182     0.12100
H683        H  0.82023937  0.71776904  0.96424864     0.15000
H684        H  0.74872685  0.66004689  0.93722307     0.14700
C685        C  0.80988299  0.30697102  0.91378623    -0.18100
C686        C  0.82935470  0.33145119  0.91518122    -0.20300
C687        C  0.85023799  0.33378580  0.93849396     0.20300
C688        C  0.85229230  0.31048248  0.95985276    -0.03200
C689        C  0.83251856  0.28582790  0.95852011    -0.06300
C690        C  0.81083318  0.28437153  0.93571904     0.20600
C691        C  0.83325831  0.26363046  0.98106693     0.18800
C692        C  0.85475573  0.26545948  0.00382927    -0.17800
C693        C  0.87477949  0.28942766  0.00474172    -0.20000
C694        C  0.87337157  0.31232329  0.98321257     0.20300
C695        C  0.89221574  0.33732439  0.98507453    -0.33000
C696        C  0.88963412  0.36117083  0.96460176     0.01000
C697        C  0.86872121  0.35915826  0.94118593    -0.24300
C698        C  0.78884931  0.26194098  0.93682302    -0.28900
C699        C  0.78736737  0.24186825  0.96117790     0.06600
C700        C  0.81091917  0.24156608  0.98198234    -0.27600
H701        H  0.79337808  0.30624918  0.89609392     0.11400
H702        H  0.82762372  0.34889997  0.89837997     0.12500
H703        H  0.85561874  0.24871583  0.02138718     0.11600
H704        H  0.89085037  0.29048721  0.02281463     0.10800
H705        H  0.90851486  0.33862155  0.00295418     0.16200
H706        H  0.86719742  0.37705988  0.92488421     0.12100
H707        H  0.77035022  0.26294221  0.92120836     0.15000
H708        H  0.80951607  0.22687674  0.00127941     0.14700
C709        C  0.16167442  0.58068471  0.95785018    -0.18100
C710        C  0.18372792  0.60276927  0.95856100    -0.20300
C711        C  0.17607494  0.63296994  0.96265363     0.20300
C712        C  0.14586143  0.64116249  0.96523586    -0.03200
C713        C  0.12348601  0.61876508  0.96436786    -0.06300
C714        C  0.13149506  0.58836791  0.96106148     0.20600
C715        C  0.09323216  0.62669784  0.96755582     0.18800
C716        C  0.08567482  0.65706064  0.97113868    -0.17800
C717        C  0.10783565  0.67919759  0.97229537    -0.20000
C718        C  0.13809205  0.67153762  0.96969854     0.20300
C719        C  0.16073610  0.69334761  0.97282120    -0.33000
C720        C  0.19096198  0.68489356  0.97177856     0.01000
C721        C  0.19823900  0.65482974  0.96563398    -0.24300
C722        C  0.10932267  0.56610178  0.96152772    -0.28900
C723        C  0.07893233  0.57354510  0.96513607     0.06600
C724        C  0.07117532  0.60413771  0.96770204    -0.27600
H725        H  0.16828243  0.55749881  0.95518552     0.11400
H726        H  0.20686911  0.59612841  0.95654277     0.12500
H727        H  0.06257828  0.66367142  0.97356579     0.11600
H728        H  0.10129788  0.70230004  0.97570046     0.10800
H729        H  0.15491392  0.71633785  0.97790828     0.16200
H730        H  0.22146235  0.64813021  0.96472165     0.12100
H731        H  0.11586766  0.54284348  0.95927239     0.15000
H732        H  0.04801887  0.61040319  0.97047172     0.14700
C733        C  0.15674898  0.36520521  0.93102780    -0.18100
C734        C  0.18069243  0.34531238  0.92926056    -0.20300
C735        C  0.18165520  0.31973830  0.94753018     0.20300
C736        C  0.15783567  0.31342797  0.96700779    -0.03200
C737        C  0.13352947  0.33345021  0.96866192    -0.06300
C738        C  0.13336382  0.35972113  0.95099227     0.20600
C739        C  0.10978993  0.32757256  0.98844747     0.18800
C740        C  0.11045357  0.30149879  0.00607917    -0.17800
C741        C  0.13482898  0.28185080  0.00477326    -0.20000
C742        C  0.15886060  0.28777408  0.98560760     0.20300
C743        C  0.18454713  0.26950667  0.98575722    -0.33000
C744        C  0.20894897  0.27690801  0.96758153     0.01000
C745        C  0.20680115  0.30129434  0.94777785    -0.24300
C746        C  0.10999796  0.38025273  0.95379117    -0.28900
C747        C  0.08639331  0.37465869  0.97350329     0.06600
C748        C  0.08607642  0.34808486  0.99045109    -0.27600
H749        H  0.15674683  0.38512408  0.91711772     0.11400
H750        H  0.19883433  0.35032277  0.91412908     0.12500
H751        H  0.09236389  0.29657993  0.02130183     0.11600
H752        H  0.13510772  0.26227722  0.01913348     0.10800
H753        H  0.18638942  0.25099925  0.00138796     0.16200
H754        H  0.22574240  0.30708242  0.93390589     0.12100
H755        H  0.10992569  0.40047202  0.94027850     0.15000
H756        H  0.06773293  0.34374625  0.00557176     0.14700
C757        C  0.78858668  0.40882612  0.84656330    -0.18100
C758        C  0.81140962  0.41070772  0.86774369    -0.20300
C759        C  0.84039201  0.41811339  0.85876646     0.20300
C760        C  0.84735061  0.41991952  0.82809473    -0.03200
C761        C  0.82457706  0.41693899  0.80674640    -0.06300
C762        C  0.79476114  0.41366221  0.81620384     0.20600
C763        C  0.83100373  0.42117604  0.77616827     0.18800
C764        C  0.86047740  0.42590910  0.76699651    -0.17800
C765        C  0.88297952  0.42957324  0.78825827    -0.20000
C766        C  0.87631676  0.42787783  0.81883429     0.20300
C767        C  0.89740858  0.43622824  0.84024015    -0.33000
C768        C  0.88970209  0.43703150  0.87066462     0.01000
C769        C  0.86176154  0.42632747  0.87985904    -0.24300
C770        C  0.77176473  0.42019486  0.79595504    -0.28900
C771        C  0.77909605  0.43194094  0.76767656     0.06600
C772        C  0.80749028  0.42549820  0.75609506    -0.27600
H773        H  0.76588374  0.40580315  0.85413058     0.11400
H774        H  0.80595701  0.40865361  0.89125127     0.12500
H775        H  0.86569629  0.42927145  0.74358530     0.11600
H776        H  0.90520248  0.43533813  0.78083632     0.10800
H777        H  0.91922799  0.44363414  0.83303105     0.16200
H778        H  0.85595599  0.42602446  0.90336315     0.12100
H779        H  0.74923305  0.42262078  0.80431527     0.15000
H780        H  0.81268118  0.43177652  0.73325483     0.14700
C781        C  0.13832375  0.43819860  0.78591450    -0.18100
C782        C  0.11204496  0.43810215  0.80274385    -0.20300
C783        C  0.11290208  0.44451969  0.83342642     0.20300
C784        C  0.14079711  0.44823181  0.84769261    -0.03200
C785        C  0.16720149  0.44812661  0.83084720    -0.06300
C786        C  0.16578271  0.44457566  0.79960072     0.20600
C787        C  0.19470626  0.45420614  0.84497687     0.18800
C788        C  0.19596682  0.45778271  0.87604651    -0.17800
C789        C  0.16984730  0.45775733  0.89273536    -0.20000
C790        C  0.14224415  0.45426234  0.87848012     0.20300
C791        C  0.11609472  0.45842908  0.89434444    -0.33000
C792        C  0.08807402  0.45700460  0.88011886     0.01000
C793        C  0.08652273  0.44885093  0.84981976    -0.24300
C794        C  0.19125372  0.45030239  0.78246668    -0.28900
C795        C  0.21774651  0.46001944  0.79633359     0.06600
C796        C  0.21993942  0.45950802  0.82762281    -0.27600
H797        H  0.13696332  0.43485701  0.76197009     0.11400
H798        H  0.09096107  0.43449554  0.79150035     0.12500
H799        H  0.21694421  0.46216487  0.88721669     0.11600
H800        H  0.17112448  0.46193015  0.91656315     0.10800
H801        H  0.11791176  0.46376122  0.91790519     0.16200
H802        H  0.06505901  0.44673279  0.83889838     0.12100
H803        H  0.18963218  0.44996427  0.75828398     0.15000
H804        H  0.24034686  0.46650175  0.83853656     0.14700
C805        C  0.10627613  0.49208170  0.17667501    -0.18100
C806        C  0.08419279  0.48930137  0.15481110    -0.20300
C807        C  0.09192618  0.48302098  0.12512560     0.20300
C808        C  0.12219757  0.47956399  0.11734707    -0.03200
C809        C  0.14445331  0.48221873  0.13941940    -0.06300
C810        C  0.13640994  0.48848688  0.16920604     0.20600
C811        C  0.17471926  0.47873376  0.13165576     0.18800
C812        C  0.18246729  0.47286006  0.10186618    -0.17800
C813        C  0.16039981  0.47035310  0.07994537    -0.20000
C814        C  0.13026300  0.47362624  0.08750302     0.20300
C815        C  0.10809072  0.47133702  0.06566278    -0.33000
C816        C  0.07787156  0.47495645  0.07317264     0.01000
C817        C  0.06994712  0.48049490  0.10303638    -0.24300
C818        C  0.15861982  0.49117411  0.19101962    -0.28900
C819        C  0.18886252  0.48766462  0.18355294     0.06600
C820        C  0.19670612  0.48134523  0.15377847    -0.27600
H821        H  0.09978312  0.49702449  0.19945135     0.11400
H822        H  0.06106931  0.49216323  0.16110336     0.12500
H823        H  0.20560055  0.47025475  0.09551169     0.11600
H824        H  0.16690568  0.46588532  0.05706854     0.10800
H825        H  0.11448084  0.46688926  0.04273884     0.16200
H826        H  0.04674134  0.48339081  0.10905002     0.12100
H827        H  0.15226105  0.49608397  0.21384992     0.15000
H828        H  0.21992533  0.47875123  0.14769869     0.14700
C829        C  0.86781004  0.42878954  0.17370336    -0.18100
C830        C  0.88522897  0.42871136  0.14786144    -0.20300
C831        C  0.87428859  0.44135496  0.12123205     0.20300
C832        C  0.84495519  0.45249807  0.11996056    -0.03200
C833        C  0.82720416  0.45209194  0.14591130    -0.06300
C834        C  0.83910414  0.44121197  0.17316920     0.20600
C835        C  0.79817905  0.46409357  0.14495562     0.18800
C836        C  0.78673410  0.47533976  0.11791237    -0.17800
C837        C  0.80448655  0.47608672  0.09226010    -0.20000
C838        C  0.83383786  0.46527224  0.09316365     0.20300
C839        C  0.85261558  0.46794907  0.06816390    -0.33000
C840        C  0.88232101  0.45819504  0.06991982     0.01000
C841        C  0.89261666  0.44410847  0.09622400    -0.24300
C842        C  0.82285228  0.44470132  0.19967761    -0.28900
C843        C  0.79474409  0.45850525  0.19908756     0.06600
C844        C  0.78186289  0.46652013  0.17143688    -0.27600
H845        H  0.87713108  0.41998647  0.19430582     0.11400
H846        H  0.90764460  0.41970558  0.14896708     0.12500
H847        H  0.76440404  0.48455683  0.11686448     0.11600
H848        H  0.79548848  0.48576407  0.07190785     0.10800
H849        H  0.84455961  0.47865873  0.04791344     0.16200
H850        H  0.91535198  0.43593062  0.09752904     0.12100
H851        H  0.83269041  0.43820907  0.22089836     0.15000
H852        H  0.76014860  0.47718532  0.17074281     0.14700
C853        C  0.50923421  0.33279151  0.90815377    -0.18100
C854        C  0.50587726  0.30973905  0.88739030    -0.20300
C855        C  0.50422050  0.31617499  0.85670516     0.20300
C856        C  0.50583016  0.34613165  0.84680305    -0.03200
C857        C  0.50911734  0.36951198  0.86787809    -0.06300
C858        C  0.51097855  0.36268549  0.89861339     0.20600
C859        C  0.51044151  0.39961616  0.85825090     0.18800
C860        C  0.50814114  0.40595256  0.82751405    -0.17800
C861        C  0.50493192  0.38276391  0.80660063    -0.20000
C862        C  0.50389069  0.35271853  0.81593628     0.20300
C863        C  0.50025791  0.32922747  0.79513643    -0.33000
C864        C  0.49791059  0.29939782  0.80503930     0.01000
C865        C  0.50032114  0.29316765  0.83585703    -0.24300
C866        C  0.51454015  0.38575595  0.91942678    -0.28900
C867        C  0.51625582  0.41596839  0.91034509     0.06600
C868        C  0.51398743  0.42271307  0.87952879    -0.27600
H869        H  0.51047595  0.32722245  0.93172389     0.11400
H870        H  0.50450625  0.28684781  0.89535476     0.12500
H871        H  0.50888994  0.42888455  0.81960567     0.11600
H872        H  0.50320142  0.38836144  0.78307729     0.10800
H873        H  0.49787765  0.33423316  0.77153001     0.16200
H874        H  0.49846040  0.27024807  0.84372409     0.12100
H875        H  0.51585835  0.37996463  0.94294057     0.15000
H876        H  0.51484223  0.44581464  0.87211251     0.14700
C877        C  0.53145410  0.64359086  0.81289852    -0.18100
C878        C  0.53578818  0.62317741  0.83637148    -0.20300
C879        C  0.52756258  0.63063692  0.86571959     0.20300
C880        C  0.51576892  0.65926181  0.87166799    -0.03200
C881        C  0.51143639  0.67987646  0.84799428    -0.06300
C882        C  0.51890229  0.67187518  0.81834706     0.20600
C883        C  0.49848435  0.70802679  0.85385164     0.18800
C884        C  0.49087267  0.71573811  0.88326786    -0.17800
C885        C  0.49530366  0.69539841  0.90669200    -0.20000
C886        C  0.50730726  0.66695067  0.90109577     0.20300
C887        C  0.50990870  0.64573069  0.92420561    -0.33000
C888        C  0.52032307  0.61667808  0.91821266     0.01000
C889        C  0.52990192  0.60962510  0.88900463    -0.24300
C890        C  0.51240891  0.69175349  0.79463104    -0.28900
C891        C  0.49825221  0.71921632  0.80036832     0.06600
C892        C  0.49206281  0.72744615  0.83004525    -0.27600
H893        H  0.53736159  0.63701351  0.79037903     0.11400
H894        H  0.54499483  0.60128974  0.83145652     0.12500
H895        H  0.48090159  0.73730765  0.88807561     0.11600
H896        H  0.48871665  0.70168921  0.92910609     0.10800
H897        H  0.50256040  0.65143719  0.94654816     0.16200
H898        H  0.53844873  0.58744310  0.88414163     0.12100
H899        H  0.51665848  0.68515910  0.77172820     0.15000
H900        H  0.48082299  0.74851707  0.83441247     0.14700
C901        C  0.49583988  0.61055689  0.20266260    -0.18100
C902        C  0.49683340  0.63101870  0.22635992    -0.20300
C903        C  0.51250448  0.65803102  0.22349544     0.20300
C904        C  0.52809227  0.66395425  0.19670100    -0.03200
C905        C  0.52623070  0.64376991  0.17238366    -0.06300
C906        C  0.50993986  0.61699002  0.17537277     0.20600
C907        C  0.53980551  0.65089539  0.14479468     0.18800
C908        C  0.55614604  0.67753037  0.14219065    -0.17800
C909        C  0.55844184  0.69722111  0.16639748    -0.20000
C910        C  0.54411171  0.69086109  0.19356363     0.20300
C911        C  0.54337023  0.71211154  0.21661634    -0.33000
C912        C  0.52483891  0.70806181  0.24169724     0.01000
C913        C  0.51077517  0.68026768  0.24578093    -0.24300
C914        C  0.50750042  0.59743602  0.15086359    -0.28900
C915        C  0.52027607  0.60468074  0.12295952     0.06600
C916        C  0.53646493  0.63151615  0.12021029    -0.27600
H917        H  0.48327764  0.59005582  0.20539369     0.11400
H918        H  0.48478126  0.62599235  0.24671515     0.12500
H919        H  0.56683126  0.68334983  0.12127475     0.11600
H920        H  0.57062863  0.71793788  0.16353248     0.10800
H921        H  0.55355871  0.73381905  0.21294319     0.16200
H922        H  0.49582964  0.67726751  0.26455088     0.12100
H923        H  0.49500475  0.57684055  0.15331811     0.15000
H924        H  0.54680447  0.63711909  0.09904503     0.14700
C925        C  0.48581271  0.37893763  0.18047157    -0.18100
C926        C  0.48927517  0.35490727  0.20049787    -0.20300
C927        C  0.51099615  0.33278928  0.19548502     0.20300
C928        C  0.52983920  0.33540036  0.17034402    -0.03200
C929        C  0.52588086  0.35918815  0.14981788    -0.06300
C930        C  0.50376333  0.38112047  0.15484931     0.20600
C931        C  0.54375390  0.36066024  0.12394536     0.18800
C932        C  0.56610847  0.33921565  0.11935923    -0.17800
C933        C  0.57023721  0.31589993  0.13977162    -0.20000
C934        C  0.55188550  0.31352657  0.16497099     0.20300
C935        C  0.55394195  0.28855501  0.18371445    -0.33000
C936        C  0.53365257  0.28442389  0.20716374     0.01000
C937        C  0.51303609  0.30715867  0.21390582    -0.24300
C938        C  0.50008660  0.40471184  0.13412291    -0.28900
C939        C  0.51767299  0.40590690  0.10809282     0.06600
C940        C  0.53913190  0.38360009  0.10309663    -0.27600
H941        H  0.46874347  0.39555509  0.18477003     0.11400
H942        H  0.47462746  0.35336684  0.21965359     0.12500
H943        H  0.58031113  0.34038247  0.09988593     0.11600
H944        H  0.58729254  0.29927001  0.13542946     0.10800
H945        H  0.56966030  0.27085191  0.17843975     0.16200
H946        H  0.49706858  0.30373542  0.23172554     0.12100
H947        H  0.48345432  0.42189213  0.13801655     0.15000
H948        H  0.55296240  0.38467096  0.08331419     0.14700
C949        C  0.68162759  0.10832193  0.94268262    -0.18100
C950        C  0.65979068  0.08584103  0.94064610    -0.20300
C951        C  0.63391382  0.08698345  0.95833192     0.20300
C952        C  0.63030422  0.11097132  0.97846029    -0.03200
C953        C  0.65260492  0.13328638  0.98093378    -0.06300
C954        C  0.67831469  0.13230789  0.96272249     0.20600
C955        C  0.64892028  0.15677599  0.00148522     0.18800
C956        C  0.62325726  0.15801884  0.01931350    -0.17800
C957        C  0.60105140  0.13637670  0.01648391    -0.20000
C958        C  0.60428948  0.11283266  0.99608658     0.20300
C959        C  0.58190538  0.09116603  0.99315289    -0.33000
C960        C  0.58524780  0.06690762  0.97349337     0.01000
C961        C  0.61154863  0.06476476  0.95629640    -0.24300
C962        C  0.69970389  0.15564861  0.96446675    -0.28900
C963        C  0.69559991  0.17970510  0.98448470     0.06600
C964        C  0.67049407  0.17918460  0.00349282    -0.27600
H965        H  0.70109903  0.10696625  0.92848790     0.11400
H966        H  0.66304068  0.06766234  0.92499968     0.12500
H967        H  0.62013987  0.17603143  0.03519037     0.11600
H968        H  0.58130695  0.13806452  0.03028122     0.10800
H969        H  0.56198695  0.09283939  0.00673431     0.16200
H970        H  0.61431456  0.04618438  0.94101189     0.12100
H971        H  0.71881651  0.15555977  0.94972432     0.15000
H972        H  0.66699310  0.19699462  0.01952403     0.14700
C973        C  0.27733509  0.84700131  0.01181327    -0.18100
C974        C  0.30189685  0.86623181  0.01257546    -0.20300
C975        C  0.32467613  0.86363030  0.99128847     0.20300
C976        C  0.32212978  0.84220937  0.96829832    -0.03200
C977        C  0.29698214  0.82317404  0.96718316    -0.06300
C978        C  0.27491322  0.82505485  0.98953469     0.20600
C979        C  0.29486236  0.80105693  0.94482037     0.18800
C980        C  0.31721414  0.79914538  0.92295549    -0.17800
C981        C  0.34212147  0.81797990  0.92406324    -0.20000
C982        C  0.34516560  0.83910142  0.94704637     0.20300
C983        C  0.37090504  0.85692241  0.94937386    -0.33000
C984        C  0.37351792  0.87827714  0.97226115     0.01000
C985        C  0.35012238  0.88177966  0.99284137    -0.24300
C986        C  0.25229874  0.80335801  0.99076902    -0.28900
C987        C  0.25175096  0.77945955  0.97036003     0.06600
C988        C  0.27192483  0.77963934  0.94628446    -0.27600
H989        H  0.26061328  0.84877344  0.02914943     0.11400
H990        H  0.30344883  0.88264605  0.03029944     0.12500
H991        H  0.31593478  0.78238791  0.90554029     0.11600
H992        H  0.35932869  0.81556501  0.90730187     0.10800
H993        H  0.38857348  0.85469610  0.93304871     0.16200
H994        H  0.35195611  0.89846374  0.01031940     0.12100
H995        H  0.23744246  0.80285870  0.00985043     0.15000
H996        H  0.27226392  0.76079115  0.93105581     0.14700
C997        C  0.68321527  0.84871984  0.93666270    -0.18100
C998        C  0.65940188  0.86885722  0.93918627    -0.20300
C999        C  0.63061159  0.85855526  0.94580039     0.20300
C1000       C  0.62551648  0.82761961  0.94892669    -0.03200
C1001       C  0.64956531  0.80721444  0.94606876    -0.06300
C1002       C  0.67868147  0.81786487  0.94050029     0.20600
C1003       C  0.64474172  0.77633990  0.95034357     0.18800
C1004       C  0.61584224  0.76605559  0.95657796    -0.17800
C1005       C  0.59203159  0.78623843  0.95925027    -0.20000
C1006       C  0.59663403  0.81713866  0.95586159     0.20300
C1007       C  0.57307821  0.83772643  0.95991550    -0.33000
C1008       C  0.57810359  0.86873934  0.95736842     0.01000
C1009       C  0.60702605  0.87875894  0.94993705    -0.24300
C1010       C  0.70297572  0.79777939  0.94099120    -0.28900
C1011       C  0.69853255  0.76721414  0.94700760     0.06600
C1012       C  0.66918103  0.75656720  0.95041414    -0.27600
H1013       H  0.70532755  0.85736470  0.93237762     0.11400
H1014       H  0.66364021  0.89259785  0.93657930     0.12500
H1015       H  0.61176237  0.74240695  0.96008193     0.11600
H1016       H  0.57009508  0.77769461  0.96453517     0.10800
H1017       H  0.55105613  0.82963636  0.96556902     0.16200
H1018       H  0.61142677  0.90249762  0.94753558     0.12100
H1019       H  0.72550898  0.80632446  0.93954012     0.15000
H1020       H  0.66570887  0.73324094  0.95623449     0.14700
C1021       C  0.28918743  0.11951240  0.99838815    -0.18100
C1022       C  0.30906548  0.09523102  0.99960647    -0.20300
C1023       C  0.33604138  0.09602837  0.98373839     0.20300
C1024       C  0.34236181  0.12090355  0.96536962    -0.03200
C1025       C  0.32192857  0.14490355  0.96340513    -0.06300
C1026       C  0.29563484  0.14476027  0.98077743     0.20600
C1027       C  0.32861386  0.16974368  0.94516818     0.18800
C1028       C  0.35502407  0.17024032  0.92854914    -0.17800
C1029       C  0.37538732  0.14675249  0.93092136    -0.20000
C1030       C  0.36958142  0.12231861  0.94967831     0.20300
C1031       C  0.39076300  0.09955022  0.95333619    -0.33000
C1032       C  0.38486472  0.07485165  0.97181439     0.01000
C1033       C  0.35714102  0.07281876  0.98639530    -0.24300
C1034       C  0.27751723  0.17063971  0.98165754    -0.28900
C1035       C  0.28554203  0.19608357  0.96497169     0.06600
C1036       C  0.30989379  0.19463522  0.94540550    -0.27600
H1037       H  0.26908411  0.11880279  0.01171688     0.11400
H1038       H  0.30375352  0.07621112  0.01368797     0.12500
H1039       H  0.36039120  0.18924671  0.91445375     0.11600
H1040       H  0.39584153  0.14785911  0.91838043     0.10800
H1041       H  0.41174211  0.10083528  0.94148171     0.16200
H1042       H  0.35238748  0.05360863  0.00044966     0.12100
H1043       H  0.25885960  0.17182050  0.99694831     0.15000
H1044       H  0.31596918  0.21428297  0.93246633     0.14700
C1045       C  0.44134299  0.18306119  0.87343647    -0.18100
C1046       C  0.44755399  0.15786367  0.89078624    -0.20300
C1047       C  0.45203486  0.12995349  0.87722822     0.20300
C1048       C  0.44953488  0.12705708  0.84600204    -0.03200
C1049       C  0.44410372  0.15267269  0.82839484    -0.06300
C1050       C  0.44068973  0.18085517  0.84222991     0.20600
C1051       C  0.44444981  0.15049494  0.79696503     0.18800
C1052       C  0.44755852  0.12229211  0.78349835    -0.17800
C1053       C  0.45224031  0.09668653  0.80105546    -0.20000
C1054       C  0.45419405  0.09896709  0.83229423     0.20300
C1055       C  0.46157945  0.07395105  0.85002164    -0.33000
C1056       C  0.46492077  0.07699211  0.88113951     0.01000
C1057       C  0.45980641  0.10510818  0.89442865    -0.24300
C1058       C  0.44024544  0.20674345  0.82474648    -0.28900
C1059       C  0.44583762  0.20494483  0.79396514     0.06600
C1060       C  0.44493695  0.17679767  0.77978924    -0.27600
H1061       H  0.43879103  0.20455349  0.88433548     0.11400
H1062       H  0.44942188  0.16031556  0.91481477     0.12500
H1063       H  0.44763688  0.12020979  0.75936925     0.11600
H1064       H  0.45547656  0.07530433  0.79014046     0.10800
H1065       H  0.46525138  0.05238862  0.83959235     0.16200
H1066       H  0.46189187  0.10787654  0.91840718     0.12100
H1067       H  0.43981345  0.22836105  0.83571415     0.15000
H1068       H  0.44822956  0.17519898  0.75584234     0.14700
C1069       C  0.40518498  0.78081700  0.85128189    -0.18100
C1070       C  0.41457654  0.80168969  0.87246035    -0.20300
C1071       C  0.42209671  0.83085086  0.86357272     0.20300
C1072       C  0.41716750  0.84008464  0.83380018    -0.03200
C1073       C  0.40776358  0.81907356  0.81248685    -0.06300
C1074       C  0.40352503  0.78890841  0.82101079     0.20600
C1075       C  0.40650088  0.82721886  0.78199244     0.18800
C1076       C  0.41065391  0.85722318  0.77363980    -0.17800
C1077       C  0.41953638  0.87826374  0.79493624    -0.20000
C1078       C  0.42448688  0.86941847  0.82467937     0.20300
C1079       C  0.43843154  0.88868212  0.84493135    -0.33000
C1080       C  0.44561603  0.87875749  0.87398080     0.01000
C1081       C  0.43620601  0.85025394  0.88345054    -0.24300
C1082       C  0.40287677  0.76688699  0.79880543    -0.28900
C1083       C  0.41194480  0.77493700  0.76979760     0.06600
C1084       C  0.40617034  0.80452680  0.76042200    -0.27600
H1085       H  0.40170249  0.75782581  0.85820338     0.11400
H1086       H  0.41767298  0.79452873  0.89542993     0.12500
H1087       H  0.40937326  0.86390033  0.75036364     0.11600
H1088       H  0.42442409  0.90091515  0.78776118     0.10800
H1089       H  0.44450931  0.91103487  0.83771770     0.16200
H1090       H  0.44051494  0.84275193  0.90612398     0.12100
H1091       H  0.40383863  0.74355387  0.80553990     0.15000
H1092       H  0.40968151  0.81058911  0.73720036     0.14700
C1093       C  0.46049292  0.87102094  0.18251961    -0.18100
C1094       C  0.45942712  0.88687678  0.15568142    -0.20300
C1095       C  0.46080525  0.87169820  0.12830496     0.20300
C1096       C  0.46203148  0.84031272  0.12760664    -0.03200
C1097       C  0.46247607  0.82423195  0.15478300    -0.06300
C1098       C  0.46249102  0.83974446  0.18234026     0.20600
C1099       C  0.46425065  0.79280860  0.15439633     0.18800
C1100       C  0.46467500  0.77768094  0.12685950    -0.17800
C1101       C  0.46468989  0.79371800  0.09984106    -0.20000
C1102       C  0.46396328  0.82515250  0.09989124     0.20300
C1103       C  0.46629361  0.84180390  0.07303547    -0.33000
C1104       C  0.46653928  0.87331753  0.07398340     0.01000
C1105       C  0.46230682  0.88770475  0.10173855    -0.24300
C1106       C  0.46620287  0.82393401  0.20917266    -0.28900
C1107       C  0.47006542  0.79278667  0.20887251     0.06600
C1108       C  0.46734567  0.77723881  0.18148438    -0.27600
H1109       H  0.46041852  0.88326193  0.20339901     0.11400
H1110       H  0.45847489  0.91111523  0.15634331     0.12500
H1111       H  0.46597170  0.75346098  0.12622590     0.11600
H1112       H  0.46592323  0.78155315  0.07895881     0.10800
H1113       H  0.46895573  0.83039676  0.05185561     0.16200
H1114       H  0.46149774  0.91190300  0.10314289     0.12100
H1115       H  0.46803042  0.83611579  0.23002275     0.15000
H1116       H  0.46985950  0.75310503  0.18089336     0.14700
C1117       C  0.51803440  0.17068965  0.09878565    -0.18100
C1118       C  0.51349329  0.14830794  0.07754981    -0.20300
C1119       C  0.50602622  0.11918390  0.08658198     0.20300
C1120       C  0.50348593  0.11229526  0.11722075    -0.03200
C1121       C  0.50809700  0.13484859  0.13862335    -0.06300
C1122       C  0.51520489  0.16423413  0.12934389     0.20600
C1123       C  0.50544644  0.12801765  0.16926968     0.18800
C1124       C  0.49847575  0.09875442  0.17830322    -0.17800
C1125       C  0.49389554  0.07636552  0.15705123    -0.20000
C1126       C  0.49623046  0.08293420  0.12646754     0.20300
C1127       C  0.49140442  0.06071288  0.10495877    -0.33000
C1128       C  0.49366729  0.06757316  0.07435722     0.01000
C1129       C  0.50104893  0.09686090  0.06543227    -0.24300
C1130       C  0.51932301  0.18663880  0.15078009    -0.28900
C1131       C  0.51660836  0.17996282  0.18136696     0.06600
C1132       C  0.50973455  0.15057390  0.19038647    -0.27600
H1133       H  0.52363600  0.19306986  0.09130689     0.11400
H1134       H  0.51568836  0.15380479  0.05404392     0.12500
H1135       H  0.49646147  0.09321170  0.20181303     0.11600
H1136       H  0.48843033  0.05394923  0.16452879     0.10800
H1137       H  0.48580861  0.03818766  0.11204247     0.16200
H1138       H  0.50324550  0.10235549  0.04191706     0.12100
H1139       H  0.52485713  0.20916094  0.14364031     0.15000
H1140       H  0.50757241  0.14516852  0.21392162     0.14700
C1141       C  0.37886128  0.93399844  0.15439736    -0.18100
C1142       C  0.35952223  0.93566818  0.17880719    -0.20300
C1143       C  0.33302633  0.95231570  0.17680489     0.20300
C1144       C  0.32519995  0.96631088  0.14959749    -0.03200
C1145       C  0.34471787  0.96457333  0.12493372    -0.06300
C1146       C  0.37202191  0.94898379  0.12761572     0.20600
C1147       C  0.33751161  0.97953537  0.09805701     0.18800
C1148       C  0.31053142  0.99536831  0.09580544    -0.17800
C1149       C  0.29134086  0.99736538  0.12034935    -0.20000
C1150       C  0.29864872  0.98332559  0.14749924     0.20300
C1151       C  0.28080211  0.98733088  0.17300719    -0.33000
C1152       C  0.28958020  0.97486798  0.20046431     0.01000
C1153       C  0.31510321  0.95663170  0.20198721    -0.24300
C1154       C  0.39247419  0.94962999  0.10390987    -0.28900
C1155       C  0.38589378  0.96540672  0.07742547     0.06600
C1156       C  0.35792829  0.97943980  0.07433363    -0.27600
H1157       H  0.39954744  0.92166432  0.15674068     0.11400
H1158       H  0.36571968  0.92466623  0.19954146     0.12500
H1159       H  0.30465161  0.00693278  0.07529079     0.11600
H1160       H  0.27110369  0.01048411  0.11829586     0.10800
H1161       H  0.26139475  0.00180076  0.17202835     0.16200
H1162       H  0.32191303  0.94722140  0.22333221     0.12100
H1163       H  0.41368982  0.93825629  0.10624027     0.15000
H1164       H  0.35258968  0.99148122  0.05392596     0.14700
C1165       C  0.65846552  0.94913324  0.86245347    -0.18100
C1166       C  0.68116237  0.94897810  0.84097802    -0.20300
C1167       C  0.67485879  0.95561389  0.81091082     0.20300
C1168       C  0.64503941  0.96128237  0.80231240    -0.03200
C1169       C  0.62208008  0.96162288  0.82409076    -0.06300
C1170       C  0.62896796  0.95600408  0.85434569     0.20600
C1171       C  0.59247134  0.96855748  0.81573084     0.18800
C1172       C  0.58599965  0.97428453  0.78551082    -0.17800
C1173       C  0.60871345  0.97415744  0.76401868    -0.20000
C1174       C  0.63839384  0.96819367  0.77225861     0.20300
C1175       C  0.66175659  0.97114621  0.75146657    -0.33000
C1176       C  0.69181724  0.96779320  0.76028812     0.01000
C1177       C  0.69803453  0.95881963  0.78982686    -0.24300
C1178       C  0.60642463  0.95786397  0.87606348    -0.28900
C1179       C  0.57677743  0.96522966  0.86816869     0.06600
C1180       C  0.57002479  0.97020917  0.83774162    -0.27600
H1181       H  0.66412467  0.94449423  0.88557430     0.11400
H1182       H  0.70382390  0.94444135  0.84805818     0.12500
H1183       H  0.56343374  0.97949635  0.77856251     0.11600
H1184       H  0.60315777  0.97949995  0.74102609     0.10800
H1185       H  0.65678184  0.97899383  0.72902642     0.16200
H1186       H  0.72102813  0.95716387  0.79709941     0.12100
H1187       H  0.61213330  0.95365533  0.89926126     0.15000
H1188       H  0.54743249  0.97584827  0.83120696     0.14700
C1189       C  0.34299364  0.92661322  0.81550757    -0.18100
C1190       C  0.31824004  0.92691069  0.79620891    -0.20300
C1191       C  0.29596780  0.94895198  0.79895430     0.20300
C1192       C  0.29827994  0.97025922  0.82205325    -0.03200
C1193       C  0.32341000  0.97017698  0.84131729    -0.06300
C1194       C  0.34613082  0.94851035  0.83781967     0.20600
C1195       C  0.32614374  0.99235977  0.86355211     0.18800
C1196       C  0.30381180  0.01413864  0.86657336    -0.17800
C1197       C  0.27914723  0.01433360  0.84743651    -0.20000
C1198       C  0.27627028  0.99269338  0.82493988     0.20300
C1199       C  0.25311871  0.99471928  0.80380501    -0.33000
C1200       C  0.25240369  0.97571213  0.77880315     0.01000
C1201       C  0.27284937  0.95165996  0.77762123    -0.24300
C1202       C  0.37158379  0.94945567  0.85648893    -0.28900
C1203       C  0.37419708  0.97157496  0.87880480     0.06600
C1204       C  0.35125450  0.99267392  0.88224989    -0.27600
H1205       H  0.35998920  0.90961054  0.81257079     0.11400
H1206       H  0.31689852  0.91031765  0.77863785     0.12500
H1207       H  0.30564745  0.03135680  0.88348923     0.11600
H1208       H  0.26262632  0.03188257  0.84980643     0.10800
H1209       H  0.23820606  0.01385860  0.80440360     0.16200
H1210       H  0.27317603  0.93750517  0.75796891     0.12100
H1211       H  0.38902522  0.93282875  0.85403392     0.15000
H1212       H  0.35318866  0.00967126  0.89941052     0.14700
C1213       C  0.56357553  0.11291244  0.33749697    -0.18100
C1214       C  0.56703897  0.13235733  0.31329356    -0.20300
C1215       C  0.55169109  0.15974244  0.31248437     0.20300
C1216       C  0.53345852  0.16820782  0.33663777    -0.03200
C1217       C  0.53019861  0.14865354  0.36125697    -0.06300
C1218       C  0.54484263  0.12063801  0.36129950     0.20600
C1219       C  0.51165249  0.15671844  0.38536619     0.18800
C1220       C  0.49684323  0.18446852  0.38471883    -0.17800
C1221       C  0.49957083  0.20360643  0.35996397    -0.20000
C1222       C  0.51752418  0.19556134  0.33559707     0.20300
C1223       C  0.51857445  0.21341264  0.30955179    -0.33000
C1224       C  0.53542079  0.20397928  0.28488147     0.01000
C1225       C  0.55294027  0.17793595  0.28713227    -0.24300
C1226       C  0.54012869  0.10056686  0.38486551    -0.28900
C1227       C  0.52148481  0.10818696  0.40882337     0.06600
C1228       C  0.50779870  0.13659330  0.40931059    -0.27600
H1229       H  0.57519805  0.09163691  0.33739252     0.11400
H1230       H  0.58111278  0.12562204  0.29483206     0.12500
H1231       H  0.48257564  0.19107315  0.40306487     0.11600
H1232       H  0.48722356  0.22447737  0.35966226     0.10800
H1233       H  0.50468919  0.23321970  0.30765337     0.16200
H1234       H  0.56587157  0.17061507  0.26801617     0.12100
H1235       H  0.55120867  0.07901699  0.38471097     0.15000
H1236       H  0.49355427  0.14265351  0.42788135     0.14700
C1237       C  0.50165051  0.82549275  0.41375585    -0.18100
C1238       C  0.49991704  0.80372512  0.39117621    -0.20300
C1239       C  0.50986502  0.81002732  0.36204040     0.20300
C1240       C  0.52269781  0.83828398  0.35606802    -0.03200
C1241       C  0.52434780  0.86027824  0.37882138    -0.06300
C1242       C  0.51326882  0.85409515  0.40767551     0.20600
C1243       C  0.53607228  0.88886097  0.37229322     0.18800
C1244       C  0.54733085  0.89476322  0.34366345    -0.17800
C1245       C  0.54563655  0.87311843  0.32121044    -0.20000
C1246       C  0.53274580  0.84511048  0.32698343     0.20300
C1247       C  0.52858012  0.82440263  0.30381813    -0.33000
C1248       C  0.51472381  0.79670471  0.30910908     0.01000
C1249       C  0.50612501  0.78923086  0.33849281    -0.24300
C1250       C  0.51310369  0.87693647  0.42948702    -0.28900
C1251       C  0.52335139  0.90606542  0.42255141     0.06600
C1252       C  0.53544098  0.91144138  0.39407044    -0.27600
H1253       H  0.49321498  0.82017594  0.43581351     0.11400
H1254       H  0.49015805  0.78216953  0.39635472     0.12500
H1255       H  0.55672669  0.91645957  0.33837919     0.11600
H1256       H  0.55372561  0.87859131  0.29906294     0.10800
H1257       H  0.53514793  0.83027620  0.28123350     0.16200
H1258       H  0.49510321  0.76806753  0.34265129     0.12100
H1259       H  0.50394761  0.87236101  0.45143000     0.15000
H1260       H  0.54398371  0.93347311  0.38863786     0.14700
C1261       C  0.47067467  0.21589762  0.63967369    -0.18100
C1262       C  0.47134609  0.19202675  0.61949596    -0.20300
C1263       C  0.49190661  0.16858305  0.62321576     0.20300
C1264       C  0.51264008  0.16964496  0.64696558    -0.03200
C1265       C  0.51231882  0.19406429  0.66702217    -0.06300
C1266       C  0.49072468  0.21688924  0.66377341     0.20600
C1267       C  0.53238720  0.19470300  0.69134369     0.18800
C1268       C  0.55339362  0.17154704  0.69465467    -0.17800
C1269       C  0.55366777  0.14731044  0.67483536    -0.20000
C1270       C  0.53301702  0.14585013  0.65126864     0.20300
C1271       C  0.53217720  0.12095832  0.63209431    -0.33000
C1272       C  0.51176909  0.12000054  0.60822813     0.01000
C1273       C  0.49187200  0.14395906  0.60380343    -0.24300
C1274       C  0.48783371  0.23878765  0.68606796    -0.28900
C1275       C  0.50584915  0.23786262  0.71177576     0.06600
C1276       C  0.52933421  0.21697438  0.71331092    -0.27600
H1277       H  0.45393745  0.23320459  0.63687003     0.11400
H1278       H  0.45531803  0.19156494  0.60135086     0.12500
H1279       H  0.56899439  0.17167857  0.71317000     0.11600
H1280       H  0.56966893  0.12941204  0.67829077     0.10800
H1281       H  0.54778649  0.10265129  0.63528557     0.16200
H1282       H  0.47609235  0.14319141  0.58542264     0.12100
H1283       H  0.46919639  0.25426966  0.68523713     0.15000
H1284       H  0.54266393  0.21560030  0.73352648     0.14700
C1285       C  0.51838645  0.80891427  0.63923145    -0.18100
C1286       C  0.52185196  0.83290511  0.61940941    -0.20300
C1287       C  0.52176094  0.86252131  0.62987816     0.20300
C1288       C  0.51920753  0.86808653  0.66070958    -0.03200
C1289       C  0.51596421  0.84375503  0.68084424    -0.06300
C1290       C  0.51500094  0.81405959  0.66993595     0.20600
C1291       C  0.51211779  0.84921808  0.71161333     0.18800
C1292       C  0.51261909  0.87886137  0.72209133    -0.17800
C1293       C  0.51595806  0.90294923  0.70213598    -0.20000
C1294       C  0.51868897  0.89791843  0.67124938     0.20300
C1295       C  0.51977097  0.92204459  0.65063539    -0.33000
C1296       C  0.52118410  0.91659037  0.61957997     0.01000
C1297       C  0.52305792  0.88657455  0.60977567    -0.24300
C1298       C  0.50889689  0.79022310  0.68959406    -0.28900
C1299       C  0.50368006  0.79568395  0.71997765     0.06600
C1300       C  0.50609102  0.82510732  0.73099546    -0.27600
H1301       H  0.51767961  0.78634745  0.63043818     0.11400
H1302       H  0.52384122  0.82830880  0.59572470     0.12500
H1303       H  0.50970133  0.88347572  0.74567587     0.11600
H1304       H  0.51565146  0.92556887  0.71081033     0.10800
H1305       H  0.51861970  0.94487461  0.65868922     0.16200
H1306       H  0.52458973  0.88162765  0.58612550     0.12100
H1307       H  0.50604017  0.76775998  0.68092523     0.15000
H1308       H  0.50105658  0.82944688  0.75429358     0.14700
C1309       C  0.38908558  0.02042026  0.30781038    -0.18100
C1310       C  0.41095200  0.01918748  0.33004514    -0.20300
C1311       C  0.40295193  0.01538239  0.36011714     0.20300
C1312       C  0.37259272  0.01347716  0.36796882    -0.03200
C1313       C  0.35052074  0.01490221  0.34555402    -0.06300
C1314       C  0.35889101  0.01791694  0.31531749     0.20600
C1315       C  0.32017807  0.01244005  0.35331143     0.18800
C1316       C  0.31212430  0.00933517  0.38345185    -0.17800
C1317       C  0.33402731  0.00789478  0.40568779    -0.20000
C1318       C  0.36430539  0.00966677  0.39813248     0.20300
C1319       C  0.38642721  0.00771163  0.42021169    -0.33000
C1320       C  0.41680894  0.00969559  0.41261862     0.01000
C1321       C  0.42481408  0.01343469  0.38243582    -0.24300
C1322       C  0.33707420  0.01698326  0.29299085    -0.28900
C1323       C  0.30700411  0.01258021  0.30041585     0.06600
C1324       C  0.29856368  0.01166607  0.33070204    -0.27600
H1325       H  0.39582497  0.02281056  0.28468029     0.11400
H1326       H  0.43415786  0.02085621  0.32367811     0.12500
H1327       H  0.28891681  0.00745273  0.38977635     0.11600
H1328       H  0.32729603  0.00511966  0.42877599     0.10800
H1329       H  0.37989966  0.00483647  0.44335535     0.16200
H1330       H  0.44807741  0.01516687  0.37626075     0.12100
H1331       H  0.34376113  0.01810238  0.26974087     0.15000
H1332       H  0.27540956  0.00847125  0.33672102     0.14700
C1333       C  0.61224273  0.06640926  0.69275319    -0.18100
C1334       C  0.63406248  0.07075001  0.71462990    -0.20300
C1335       C  0.66408030  0.07344157  0.70640092     0.20300
C1336       C  0.67177752  0.07526126  0.67586289    -0.03200
C1337       C  0.64993617  0.07030690  0.65389169    -0.06300
C1338       C  0.62030860  0.06446534  0.66253519     0.20600
C1339       C  0.65842892  0.06786575  0.62365267     0.18800
C1340       C  0.68795744  0.07366764  0.61530216    -0.17800
C1341       C  0.70960731  0.07890241  0.63710667    -0.20000
C1342       C  0.70196992  0.07786011  0.66746633     0.20300
C1343       C  0.72407732  0.07407870  0.68926408    -0.33000
C1344       C  0.71572087  0.06269020  0.71734056     0.01000
C1345       C  0.68676685  0.06921410  0.72756566    -0.24300
C1346       C  0.59989972  0.05438598  0.64121996    -0.28900
C1347       C  0.60900579  0.04914973  0.61162009     0.06600
C1348       C  0.63789604  0.05730289  0.60271345    -0.27600
H1349       H  0.58945617  0.06245149  0.69962958     0.11400
H1350       H  0.62777132  0.06960400  0.73797646     0.12500
H1351       H  0.69467283  0.07227947  0.59209206     0.11600
H1352       H  0.73265799  0.08108261  0.63033197     0.10800
H1353       H  0.74706884  0.07206161  0.68214165     0.16200
H1354       H  0.68065295  0.06339079  0.75029375     0.12100
H1355       H  0.57739344  0.04907037  0.64813063     0.15000
H1356       H  0.64492575  0.05411283  0.57977736     0.14700
C1357       C  0.30962642  0.05794460  0.62153725    -0.18100
C1358       C  0.33462776  0.05637599  0.60317502    -0.20300
C1359       C  0.36224746  0.04772683  0.61511615     0.20300
C1360       C  0.36537727  0.04281935  0.64610025    -0.03200
C1361       C  0.34019648  0.04447753  0.66461089    -0.06300
C1362       C  0.31202989  0.05092585  0.65200878     0.20600
C1363       C  0.34279698  0.03729153  0.69521638     0.18800
C1364       C  0.37090259  0.03085609  0.70749875    -0.17800
C1365       C  0.39597420  0.02936868  0.68911539    -0.20000
C1366       C  0.39318969  0.03419482  0.65825122     0.20300
C1367       C  0.41722224  0.02887500  0.63911535    -0.33000
C1368       C  0.41346282  0.03156278  0.60807549     0.01000
C1369       C  0.38633986  0.04224761  0.59636716    -0.24300
C1370       C  0.28647786  0.04753429  0.66939757    -0.28900
C1371       C  0.28872394  0.03681604  0.69885354     0.06600
C1372       C  0.31698963  0.03398999  0.71231963    -0.27600
H1373       H  0.28817942  0.06318609  0.61163794     0.11400
H1374       H  0.33208484  0.06058786  0.57943066     0.12500
H1375       H  0.37325885  0.02556727  0.73104457     0.11600
H1376       H  0.41724656  0.02311862  0.69881659     0.10800
H1377       H  0.43833196  0.02130300  0.64825311     0.16200
H1378       H  0.38361598  0.04546861  0.57247145     0.12100
H1379       H  0.26479191  0.05043185  0.65905937     0.15000
H1380       H  0.31898098  0.02633319  0.73526210     0.14700
C1381       C  0.66772307  0.96751467  0.07771914    -0.18100
C1382       C  0.68927911  0.96669425  0.10055817    -0.20300
C1383       C  0.68166292  0.95758570  0.12965652     0.20300
C1384       C  0.65217201  0.94805908  0.13528229    -0.03200
C1385       C  0.63037717  0.94910917  0.11230230    -0.06300
C1386       C  0.63802107  0.95940896  0.08349301     0.20600
C1387       C  0.60068702  0.94085027  0.11851645     0.18800
C1388       C  0.59333059  0.93022378  0.14710759    -0.17800
C1389       C  0.61482376  0.92911888  0.16974646    -0.20000
C1390       C  0.64405473  0.93865965  0.16422688     0.20300
C1391       C  0.66480464  0.94031660  0.18756556    -0.33000
C1392       C  0.69368408  0.95153394  0.18280301     0.01000
C1393       C  0.70242371  0.95913926  0.15350997    -0.24300
C1394       C  0.61567677  0.96226685  0.06133907    -0.28900
C1395       C  0.58562730  0.95548381  0.06781750     0.06600
C1396       C  0.57863565  0.94415721  0.09639218    -0.27600
H1397       H  0.67414675  0.97523336  0.05568056     0.11400
H1398       H  0.71176890  0.97386941  0.09560248     0.12500
H1399       H  0.57074021  0.92345060  0.15218644     0.11600
H1400       H  0.60834984  0.92159397  0.19184491     0.10800
H1401       H  0.65798298  0.93414498  0.20999901     0.16200
H1402       H  0.72455983  0.96794864  0.14965622     0.12100
H1403       H  0.62152881  0.97073095  0.03940226     0.15000
H1404       H  0.55583202  0.93822572  0.10162611     0.14700
C1405       C  0.70548911  0.98712670  0.36877941    -0.18100
C1406       C  0.68904899  0.99365464  0.39445160    -0.20300
C1407       C  0.66001653  0.00501469  0.39194767     0.20300
C1408       C  0.64793485  0.01108321  0.36331287    -0.03200
C1409       C  0.66432674  0.00422163  0.33750834    -0.06300
C1410       C  0.69304651  0.99178142  0.34029607     0.20600
C1411       C  0.65147078  0.00868264  0.30894542     0.18800
C1412       C  0.62292273  0.02116349  0.30641623    -0.17800
C1413       C  0.60673611  0.02816724  0.33200441    -0.20000
C1414       C  0.61884508  0.02255739  0.36039266     0.20300
C1415       C  0.60157218  0.02636573  0.38580680    -0.33000
C1416       C  0.61248964  0.01795678  0.41408560     0.01000
C1417       C  0.64216968  0.00868840  0.41734615    -0.24300
C1418       C  0.70848946  0.98347980  0.31454683    -0.28900
C1419       C  0.69545722  0.98711569  0.28605120     0.06600
C1420       C  0.66705968  0.99991841  0.28341686    -0.27600
H1421       H  0.72764307  0.97773153  0.37119515     0.11400
H1422       H  0.69871394  0.98904399  0.41621197     0.12500
H1423       H  0.61286111  0.02487628  0.28467289     0.11600
H1424       H  0.58433187  0.03693078  0.32958672     0.10800
H1425       H  0.57880239  0.03406078  0.38328234     0.16200
H1426       H  0.65065545  0.00243342  0.43921008     0.12100
H1427       H  0.73037138  0.97339561  0.31683357     0.15000
H1428       H  0.65701068  0.00287106  0.26153979     0.14700
C1429       C  0.33502420  0.90578346  0.53017875    -0.18100
C1430       C  0.31257310  0.88417582  0.52791855    -0.20300
C1431       C  0.31978221  0.85403718  0.52260216     0.20300
C1432       C  0.34997904  0.84542559  0.52072959    -0.03200
C1433       C  0.37266478  0.86736722  0.52253777    -0.06300
C1434       C  0.36509111  0.89772731  0.52681599     0.20600
C1435       C  0.40280551  0.85904279  0.51906845     0.18800
C1436       C  0.41002284  0.82871244  0.51494932    -0.17800
C1437       C  0.38760794  0.80695865  0.51347128    -0.20000
C1438       C  0.35747604  0.81508784  0.51583380     0.20300
C1439       C  0.33473403  0.79370154  0.51198232    -0.33000
C1440       C  0.30465810  0.80250293  0.51189497     0.01000
C1441       C  0.29737163  0.83261316  0.51782760    -0.24300
C1442       C  0.38757065  0.91960760  0.52679235    -0.28900
C1443       C  0.41771007  0.91175228  0.52230221     0.06600
C1444       C  0.42510030  0.88121704  0.51900803    -0.27600
H1445       H  0.32880265  0.92895269  0.53376439     0.11400
H1446       H  0.28951621  0.89115333  0.52972048     0.12500
H1447       H  0.43303125  0.82184279  0.51237441     0.11600
H1448       H  0.39383174  0.78382228  0.50973487     0.10800
H1449       H  0.34044083  0.77064819  0.50703964     0.16200
H1450       H  0.27419206  0.83951557  0.51772011     0.12100
H1451       H  0.38143631  0.94289973  0.52973599     0.15000
H1452       H  0.44812114  0.87471903  0.51564180     0.14700
C1453       C  0.62481291  0.83596985  0.54576662    -0.18100
C1454       C  0.64472297  0.81191368  0.54263155    -0.20300
C1455       C  0.67275305  0.81619181  0.52941858     0.20300
C1456       C  0.68142210  0.84552819  0.52119531    -0.03200
C1457       C  0.66135642  0.86985432  0.52449937    -0.06300
C1458       C  0.63255488  0.86480510  0.53583547     0.20600
C1459       C  0.66961190  0.89890447  0.51505123     0.18800
C1460       C  0.69846010  0.90363088  0.50396650    -0.17800
C1461       C  0.71817672  0.87955638  0.50040732    -0.20000
C1462       C  0.70950489  0.85034720  0.50808768     0.20300
C1463       C  0.72775628  0.82576194  0.50133372    -0.33000
C1464       C  0.71858503  0.79627585  0.50756939     0.01000
C1465       C  0.69153713  0.79162893  0.52271460    -0.24300
C1466       C  0.61161875  0.88831515  0.53587342    -0.28900
C1467       C  0.61901149  0.91703800  0.52489308     0.06600
C1468       C  0.64851007  0.92235687  0.51556903    -0.27600
H1469       H  0.60294448  0.83180387  0.55506922     0.11400
H1470       H  0.63774576  0.78975466  0.54954732     0.12500
H1471       H  0.70541437  0.92578407  0.49700054     0.11600
H1472       H  0.73988593  0.88365176  0.49070020     0.10800
H1473       H  0.74863553  0.82942561  0.48973238     0.16200
H1474       H  0.68427405  0.76897816  0.52742067     0.12100
H1475       H  0.58923775  0.88398867  0.54380234     0.15000
H1476       H  0.65467253  0.94433982  0.50736117     0.14700
C1477       C  0.62615117  0.19404673  0.48019342    -0.18100
C1478       C  0.64717571  0.21719131  0.48121224    -0.20300
C1479       C  0.67015161  0.21684643  0.50257462     0.20300
C1480       C  0.67165831  0.19302186  0.52335244    -0.03200
C1481       C  0.65092503  0.16914289  0.52174503    -0.06300
C1482       C  0.62800199  0.16972643  0.50011029     0.20600
C1483       C  0.65359778  0.14436744  0.54127035     0.18800
C1484       C  0.67635884  0.14422028  0.56287166    -0.17800
C1485       C  0.69665202  0.16796255  0.56467690    -0.20000
C1486       C  0.69474604  0.19229664  0.54477700     0.20300
C1487       C  0.71688011  0.21457935  0.54435264    -0.33000
C1488       C  0.71734105  0.23660922  0.52171026     0.01000
C1489       C  0.69290514  0.23856034  0.50200934    -0.24300
C1490       C  0.60762938  0.14581208  0.49846751    -0.28900
C1491       C  0.61051289  0.12063500  0.51733770     0.06600
C1492       C  0.63366210  0.12012352  0.53866343    -0.27600
H1493       H  0.60877656  0.19486098  0.46336066     0.11400
H1494       H  0.64571438  0.23516722  0.46495389     0.12500
H1495       H  0.67866079  0.12558053  0.57821054     0.11600
H1496       H  0.71434238  0.16689539  0.58116953     0.10800
H1497       H  0.73609988  0.21222152  0.55892347     0.16200
H1498       H  0.69355194  0.25467544  0.48383832     0.12100
H1499       H  0.58987891  0.14643356  0.48200051     0.15000
H1500       H  0.63578607  0.10110755  0.55356964     0.14700
C1501       C  0.36096519  0.20018853  0.54258444    -0.18100
C1502       C  0.38530527  0.18042828  0.54376887    -0.20300
C1503       C  0.38793847  0.15697535  0.52305234     0.20300
C1504       C  0.36605757  0.15375704  0.50059731    -0.03200
C1505       C  0.34185152  0.17407216  0.49903383    -0.06300
C1506       C  0.33897746  0.19719127  0.52039596     0.20600
C1507       C  0.31996415  0.17054511  0.47671278     0.18800
C1508       C  0.32247274  0.14709356  0.45602091    -0.17800
C1509       C  0.34620710  0.12684852  0.45775402    -0.20000
C1510       C  0.36794263  0.12980296  0.48009575     0.20300
C1511       C  0.39122013  0.10892377  0.48256020    -0.33000
C1512       C  0.41309021  0.11199414  0.50477389     0.01000
C1513       C  0.41167771  0.13634327  0.52466446    -0.24300
C1514       C  0.31343825  0.21578921  0.52008217    -0.28900
C1515       C  0.29090354  0.21137416  0.49864225     0.06600
C1516       C  0.29506891  0.18948299  0.47639037    -0.27600
H1517       H  0.35917710  0.21764303  0.55925487     0.11400
H1518       H  0.40182783  0.18319088  0.56123480     0.12500
H1519       H  0.30570800  0.14402738  0.43884366     0.11600
H1520       H  0.34737779  0.10866201  0.44180819     0.10800
H1521       H  0.39248775  0.09032250  0.46707059     0.16200
H1522       H  0.42853609  0.13864596  0.54190169     0.12100
H1523       H  0.31005087  0.23198654  0.53775347     0.15000
H1524       H  0.27757861  0.18564259  0.46007450     0.14700
C1525       C  0.78131318  0.99625464  0.60013123    -0.18100
C1526       C  0.80241066  0.99273010  0.57734111    -0.20300
C1527       C  0.82925338  0.97739780  0.58273203     0.20300
C1528       C  0.83448778  0.96493311  0.61135072    -0.03200
C1529       C  0.81292235  0.96821952  0.63440491    -0.06300
C1530       C  0.78643490  0.98429284  0.62878092     0.20600
C1531       C  0.81828042  0.95628900  0.66327123     0.18800
C1532       C  0.84504524  0.94069712  0.66849880    -0.17800
C1533       C  0.86640217  0.93754874  0.64575147    -0.20000
C1534       C  0.86157129  0.94992987  0.61717363     0.20300
C1535       C  0.88360732  0.94830709  0.59463726    -0.33000
C1536       C  0.87890882  0.96123553  0.56606650     0.01000
C1537       C  0.85122036  0.97513144  0.56027123    -0.24300
C1538       C  0.76598698  0.98907962  0.65209890    -0.28900
C1539       C  0.77126585  0.97800760  0.68123547     0.06600
C1540       C  0.79733417  0.96110491  0.68652856    -0.27600
H1541       H  0.76108617  0.00870939  0.59542431     0.11400
H1542       H  0.79793654  0.00250244  0.55558609     0.12500
H1543       H  0.84971500  0.93131911  0.69038080     0.11600
H1544       H  0.88697352  0.92578253  0.65068703     0.10800
H1545       H  0.90461411  0.93728313  0.59948203     0.16200
H1546       H  0.84719773  0.98530364  0.53859837     0.12100
H1547       H  0.74626121  0.00253713  0.64786398     0.15000
H1548       H  0.80206084  0.95315364  0.70895977     0.14700
C1549       C  0.08977489  0.96180424  0.65677194    -0.18100
C1550       C  0.11184098  0.96575534  0.67881498    -0.20300
C1551       C  0.13957922  0.97839543  0.67156272     0.20300
C1552       C  0.14458829  0.98758900  0.64168439    -0.03200
C1553       C  0.12237845  0.98357505  0.61945286    -0.06300
C1554       C  0.09489337  0.97036755  0.62692492     0.20600
C1555       C  0.12790066  0.99248984  0.58964652     0.18800
C1556       C  0.15511890  0.00595758  0.58238948    -0.17800
C1557       C  0.17698530  0.00985959  0.60425365    -0.20000
C1558       C  0.17199403  0.00049092  0.63380289     0.20300
C1559       C  0.19422884  0.00375823  0.65540066    -0.33000
C1560       C  0.19007961  0.99467658  0.68543067     0.01000
C1561       C  0.16241745  0.98191753  0.69338056    -0.24300
C1562       C  0.07327587  0.96569088  0.60437676    -0.28900
C1563       C  0.07902771  0.97370865  0.57434772     0.06600
C1564       C  0.10635589  0.98749296  0.56745386    -0.27600
H1565       H  0.06875504  0.95175244  0.66304677     0.11400
H1566       H  0.10726250  0.95868109  0.70152274     0.12500
H1567       H  0.15965204  0.01316356  0.55969790     0.11600
H1568       H  0.19796164  0.02002447  0.59797425     0.10800
H1569       H  0.21520755  0.01336949  0.64833860     0.16200
H1570       H  0.15862306  0.97497104  0.71628089     0.12100
H1571       H  0.05221761  0.95539290  0.61011996     0.15000
H1572       H  0.11092149  0.99449162  0.54468694     0.14700
C1573       C  0.18537567  0.93753545  0.34333611    -0.18100
C1574       C  0.16200237  0.93747594  0.36381824    -0.20300
C1575       C  0.13685148  0.95549970  0.35898927     0.20300
C1576       C  0.13486615  0.97334745  0.33294790    -0.03200
C1577       C  0.15865201  0.97374337  0.31244858    -0.06300
C1578       C  0.18404736  0.95587979  0.31787399     0.20600
C1579       C  0.15755551  0.99286198  0.28721493     0.18800
C1580       C  0.13207019  0.01045354  0.28216229    -0.17800
C1581       C  0.10809752  0.00946128  0.30211980    -0.20000
C1582       C  0.10942436  0.99124121  0.32772438     0.20300
C1583       C  0.08597036  0.99080826  0.34839653    -0.33000
C1584       C  0.08820066  0.97348463  0.37460989     0.01000
C1585       C  0.11372266  0.95605472  0.37983269    -0.24300
C1586       C  0.20846150  0.95802747  0.29876057    -0.28900
C1587       C  0.20838010  0.97853226  0.27495011     0.06600
C1588       C  0.18263534  0.99525138  0.26856517    -0.27600
H1589       H  0.20480460  0.92376336  0.34777344     0.11400
H1590       H  0.16367839  0.92347242  0.38351545     0.12500
H1591       H  0.13082704  0.02526116  0.26297020     0.11600
H1592       H  0.08873405  0.02336160  0.29781151     0.10800
H1593       H  0.06628810  0.00439388  0.34445733     0.16200
H1594       H  0.11530636  0.94246271  0.39989323     0.12100
H1595       H  0.22866735  0.94563515  0.30390540     0.15000
H1596       H  0.18295069  0.01159404  0.25060138     0.14700
C1597       C  0.82588651  0.91623285  0.34296160    -0.18100
C1598       C  0.80652977  0.91133630  0.31891949    -0.20300
C1599       C  0.80869031  0.92870229  0.29279291     0.20300
C1600       C  0.83110118  0.95062518  0.29051455    -0.03200
C1601       C  0.85111809  0.95509503  0.31457636    -0.06300
C1602       C  0.84806164  0.93824069  0.34115308     0.20600
C1603       C  0.87360062  0.97700260  0.31236590     0.18800
C1604       C  0.87571549  0.99432008  0.28618874    -0.17800
C1605       C  0.85509371  0.99074705  0.26288258    -0.20000
C1606       C  0.83245111  0.96920746  0.26493307     0.20300
C1607       C  0.80966725  0.96765558  0.24322625    -0.33000
C1608       C  0.78595221  0.94743158  0.24668571     0.01000
C1609       C  0.78720329  0.92632629  0.27012281    -0.24300
C1610       C  0.86712078  0.94376938  0.36548070    -0.28900
C1611       C  0.88993338  0.96518870  0.36331083     0.06600
C1612       C  0.89327381  0.98144835  0.33650176    -0.27600
H1613       H  0.82335538  0.90296503  0.36307614     0.11400
H1614       H  0.78922746  0.89461132  0.32115444     0.12500
H1615       H  0.89283236  0.01124354  0.28407997     0.11600
H1616       H  0.85653665  0.00522657  0.24346835     0.10800
H1617       H  0.80848029  0.98448802  0.22574511     0.16200
H1618       H  0.76854571  0.91125999  0.27333775     0.12100
H1619       H  0.86479261  0.93078387  0.38583295     0.15000
H1620       H  0.91089355  0.99789857  0.33465487     0.14700
C1621       C  0.19318452  0.86458337  0.43275443    -0.18100
C1622       C  0.16733757  0.88179438  0.43486218    -0.20300
C1623       C  0.13977769  0.86808571  0.44017880     0.20300
C1624       C  0.13772630  0.83668762  0.44147516    -0.03200
C1625       C  0.16389301  0.81928417  0.43951497    -0.06300
C1626       C  0.19183863  0.83347368  0.43644739     0.20600
C1627       C  0.16239290  0.78802634  0.44342719     0.18800
C1628       C  0.13449226  0.77418176  0.44650973    -0.17800
C1629       C  0.10846129  0.79147899  0.44828697    -0.20000
C1630       C  0.10994625  0.82286679  0.44695271     0.20300
C1631       C  0.08458640  0.84076037  0.45237183    -0.33000
C1632       C  0.08703652  0.87220326  0.45278772     0.01000
C1633       C  0.11459364  0.88545077  0.44572133    -0.24300
C1634       C  0.21799249  0.81693266  0.44081988    -0.28900
C1635       C  0.21638804  0.78680688  0.44962744     0.06600
C1636       C  0.18883105  0.77176291  0.44765904    -0.27600
H1637       H  0.21441199  0.87578042  0.43017684     0.11400
H1638       H  0.16912566  0.90595352  0.43385394     0.12500
H1639       H  0.13295205  0.75011762  0.44922808     0.11600
H1640       H  0.08736647  0.78037578  0.45203953     0.10800
H1641       H  0.06340130  0.83029371  0.45731090     0.16200
H1642       H  0.11678502  0.90960110  0.44516047     0.12100
H1643       H  0.23922167  0.82845000  0.44120367     0.15000
H1644       H  0.18741658  0.74819293  0.45331712     0.14700
C1645       C  0.85855503  0.76911347  0.41488332    -0.18100
C1646       C  0.88105658  0.79030665  0.41907360    -0.20300
C1647       C  0.87383031  0.82074360  0.42204203     0.20300
C1648       C  0.84417722  0.83029376  0.41748422    -0.03200
C1649       C  0.82162374  0.80901383  0.41260967    -0.06300
C1650       C  0.82863721  0.77820886  0.41326425     0.20600
C1651       C  0.79161175  0.81835133  0.41071903     0.18800
C1652       C  0.78472109  0.84898601  0.41067073    -0.17800
C1653       C  0.80704741  0.87006646  0.41585522    -0.20000
C1654       C  0.83655288  0.86076128  0.42065954     0.20300
C1655       C  0.85807937  0.88104326  0.43055523    -0.33000
C1656       C  0.88718305  0.87130669  0.43736983     0.01000
C1657       C  0.89524888  0.84141387  0.43154169    -0.24300
C1658       C  0.80556375  0.75742525  0.41691314    -0.28900
C1659       C  0.77647106  0.76784328  0.42277831     0.06600
C1660       C  0.76897542  0.79707516  0.41367458    -0.27600
H1661       H  0.86435483  0.74554955  0.41503430     0.11400
H1662       H  0.90382455  0.78269663  0.42194928     0.12500
H1663       H  0.76180780  0.85650376  0.40901991     0.11600
H1664       H  0.80096973  0.89348090  0.41770747     0.10800
H1665       H  0.85177245  0.90421877  0.43398088     0.16200
H1666       H  0.91783846  0.83384580  0.43572514     0.12100
H1667       H  0.81126804  0.73426962  0.42160419     0.15000
H1668       H  0.74615724  0.80478474  0.41583279     0.14700
C1669       C  0.80976918  0.08919282  0.46831216    -0.18100
C1670       C  0.79201768  0.11485971  0.46961854    -0.20300
C1671       C  0.80472291  0.14323550  0.46552041     0.20300
C1672       C  0.83513260  0.14581930  0.45824587    -0.03200
C1673       C  0.85296999  0.12006064  0.45704510    -0.06300
C1674       C  0.84039844  0.09165331  0.46292731     0.20600
C1675       C  0.88372717  0.12296026  0.45181857     0.18800
C1676       C  0.89621088  0.15114789  0.44621552    -0.17800
C1677       C  0.87846117  0.17670441  0.44719449    -0.20000
C1678       C  0.84816460  0.17428068  0.45414594     0.20300
C1679       C  0.83124472  0.19988556  0.45930405    -0.33000
C1680       C  0.80175499  0.19736106  0.46925409     0.01000
C1681       C  0.78809893  0.16911147  0.47068254    -0.24300
C1682       C  0.85893236  0.06648753  0.46474789    -0.28900
C1683       C  0.88973828  0.06974072  0.46120930     0.06600
C1684       C  0.90179741  0.09783052  0.45384033    -0.27600
H1685       H  0.79976017  0.06755390  0.47258346     0.11400
H1686       H  0.76860695  0.11260279  0.47498238     0.12500
H1687       H  0.91988589  0.15353228  0.44221670     0.11600
H1688       H  0.88867308  0.19841738  0.44385772     0.10800
H1689       H  0.84175414  0.22165924  0.45765045     0.16200
H1690       H  0.76514595  0.16706170  0.47786062     0.12100
H1691       H  0.84962185  0.04477979  0.47019946     0.15000
H1692       H  0.92556688  0.10045084  0.45063517     0.14700
C1693       C  0.16476289  0.07951150  0.48018537    -0.18100
C1694       C  0.18547545  0.10245942  0.48422849    -0.20300
C1695       C  0.17615117  0.13094040  0.49358956     0.20300
C1696       C  0.14581759  0.13630482  0.49950816    -0.03200
C1697       C  0.12489800  0.11315588  0.49535395    -0.06300
C1698       C  0.13438956  0.08469866  0.48539540     0.20600
C1699       C  0.09446908  0.11862711  0.50076275     0.18800
C1700       C  0.08530033  0.14686332  0.51100970    -0.17800
C1701       C  0.10605342  0.16980482  0.51515641    -0.20000
C1702       C  0.13632194  0.16489369  0.50911166     0.20300
C1703       C  0.15718243  0.18811778  0.51208443    -0.33000
C1704       C  0.18741414  0.18303724  0.50558937     0.01000
C1705       C  0.19664620  0.15422183  0.49669936    -0.24300
C1706       C  0.11332637  0.06205536  0.48049930    -0.28900
C1707       C  0.08282164  0.06757120  0.48515098     0.06600
C1708       C  0.07368161  0.09588782  0.49555802    -0.27600
H1709       H  0.17246707  0.05779458  0.47267587     0.11400
H1710       H  0.20877776  0.09801166  0.47974096     0.12500
H1711       H  0.06200305  0.15130930  0.51550901     0.11600
H1712       H  0.09836965  0.19149718  0.52275425     0.10800
H1713       H  0.14983487  0.21011747  0.51915774     0.16200
H1714       H  0.21986529  0.14983323  0.49173208     0.12100
H1715       H  0.12065571  0.04031023  0.47266272     0.15000
H1716       H  0.05030453  0.10029084  0.49972990     0.14700
C1717       C  0.95638581  0.58538867  0.14648551    -0.18100
C1718       C  0.95896893  0.60764104  0.16831813    -0.20300
C1719       C  0.96898125  0.63641741  0.16068058     0.20300
C1720       C  0.97518872  0.64325295  0.13053981    -0.03200
C1721       C  0.97279872  0.62065691  0.10848932    -0.06300
C1722       C  0.96393085  0.59144062  0.11663074     0.20600
C1723       C  0.98031397  0.62702833  0.07854873     0.18800
C1724       C  0.98911145  0.65619735  0.07075256    -0.17800
C1725       C  0.99139043  0.67858955  0.09255536    -0.20000
C1726       C  0.98500104  0.67227155  0.12263427     0.20300
C1727       C  0.98961160  0.69392012  0.14510453    -0.33000
C1728       C  0.98529834  0.68651619  0.17535947     0.01000
C1729       C  0.97422935  0.65799562  0.18282587    -0.24300
C1730       C  0.96365747  0.56857244  0.09503998    -0.28900
C1731       C  0.97215996  0.57437567  0.06525636     0.06600
C1732       C  0.97978041  0.60395877  0.05713796    -0.27600
H1733       H  0.94923017  0.56319555  0.15311512     0.11400
H1734       H  0.95382703  0.60211660  0.19133651     0.12500
H1735       H  0.99483287  0.66156269  0.04784057     0.11600
H1736       H  0.99886891  0.70068684  0.08598102     0.10800
H1737       H  0.99840148  0.71575026  0.13928712     0.16200
H1738       H  0.97082299  0.65223173  0.20614094     0.12100
H1739       H  0.95734455  0.54609085  0.10160784     0.15000
H1740       H  0.98627892  0.60889545  0.03433252     0.14700
C1741       C  0.94868733  0.80602098  0.33624887    -0.18100
C1742       C  0.94642422  0.78761104  0.31110179    -0.20300
C1743       C  0.96162965  0.79483292  0.28466702     0.20300
C1744       C  0.97861081  0.82128291  0.28320520    -0.03200
C1745       C  0.98036517  0.84023635  0.30841741    -0.06300
C1746       C  0.96579027  0.83225493  0.33525073     0.20600
C1747       C  0.99738969  0.86667808  0.30703889     0.18800
C1748       C  0.01240311  0.87396799  0.28047088    -0.17800
C1749       C  0.01158987  0.85458867  0.25589104    -0.20000
C1750       C  0.99518566  0.82789782  0.25718695     0.20300
C1751       C  0.99716428  0.80644916  0.23421621    -0.33000
C1752       C  0.98214159  0.77898510  0.23682502     0.01000
C1753       C  0.96231254  0.77468683  0.26073821    -0.24300
C1754       C  0.96864985  0.85055303  0.36062539    -0.28900
C1755       C  0.98525984  0.87718331  0.35934337     0.06600
C1756       C  0.99936237  0.88516591  0.33233664    -0.27600
H1757       H  0.93726027  0.79958880  0.35658323     0.11400
H1758       H  0.93356354  0.76717103  0.31266001     0.12500
H1759       H  0.02547915  0.89427138  0.27898747     0.11600
H1760       H  0.02433242  0.86016160  0.23610921     0.10800
H1761       H  0.01293407  0.80962936  0.21616806     0.16200
H1762       H  0.95127700  0.75321985  0.26311560     0.12100
H1763       H  0.95733409  0.84447189  0.38114844     0.15000
H1764       H  0.01222823  0.90564217  0.33113744     0.14700
C1765       C  0.94387491  0.30140642  0.79717130    -0.18100
C1766       C  0.94289633  0.32644670  0.81603541    -0.20300
C1767       C  0.96562845  0.33149868  0.83705308     0.20300
C1768       C  0.98920780  0.31059798  0.83948319    -0.03200
C1769       C  0.99032073  0.28543367  0.82023487    -0.06300
C1770       C  0.96771204  0.28098292  0.79875986     0.20600
C1771       C  0.01481689  0.26558030  0.82150686     0.18800
C1772       C  0.03737535  0.27040666  0.84273681    -0.17800
C1773       C  0.03588947  0.29480592  0.86228606    -0.20000
C1774       C  0.01208202  0.31519331  0.86066267     0.20300
C1775       C  0.01092603  0.34020875  0.87965841    -0.33000
C1776       C  0.98784181  0.36142498  0.87709165     0.01000
C1777       C  0.96532415  0.35705556  0.85557484    -0.24300
C1778       C  0.97057072  0.25767112  0.77774230    -0.28900
C1779       C  0.99633676  0.23955581  0.77705511     0.06600
C1780       C  0.01751942  0.24269228  0.80008042    -0.27600
H1781       H  0.92634710  0.29845444  0.78076100     0.11400
H1782       H  0.92450491  0.34207493  0.81392765     0.12500
H1783       H  0.05645315  0.25554345  0.84392602     0.11600
H1784       H  0.05369829  0.29804925  0.87833324     0.10800
H1785       H  0.02826113  0.34347439  0.89624983     0.16200
H1786       H  0.94726416  0.37313768  0.85379680     0.12100
H1787       H  0.95472821  0.25625755  0.75946097     0.15000
H1788       H  0.03792319  0.22968047  0.79911323     0.14700
C1789       C  0.00313892  0.09388528  0.67844989    -0.18100
C1790       C  0.00023459  0.07102301  0.65704961    -0.20300
C1791       C  0.99338955  0.07781249  0.62706796     0.20300
C1792       C  0.98920461  0.10806007  0.61880416    -0.03200
C1793       C  0.99214211  0.13113447  0.64039760    -0.06300
C1794       C  0.99929155  0.12413367  0.67042308     0.20600
C1795       C  0.98839407  0.16127687  0.63174216     0.18800
C1796       C  0.98126135  0.16818655  0.60193623    -0.17800
C1797       C  0.97828876  0.14547155  0.58071061    -0.20000
C1798       C  0.98242938  0.11538311  0.58884395     0.20300
C1799       C  0.98018425  0.09264936  0.56735558    -0.33000
C1800       C  0.98456271  0.06228956  0.57501248     0.01000
C1801       C  0.99096691  0.05507115  0.60516882    -0.24300
C1802       C  0.00318353  0.14751961  0.69152478    -0.28900
C1803       C  0.00043943  0.17776952  0.68265432     0.06600
C1804       C  0.99253823  0.18414544  0.65276340    -0.27600
H1805       H  0.00866784  0.08788487  0.70128226     0.11400
H1806       H  0.00354894  0.04798160  0.66395116     0.12500
H1807       H  0.97826344  0.19124882  0.59494465     0.11600
H1808       H  0.97300016  0.15148730  0.55781429     0.10800
H1809       H  0.97511480  0.09878456  0.54443253     0.16200
H1810       H  0.99457596  0.03190453  0.61150326     0.12100
H1811       H  0.00961020  0.14227474  0.71431285     0.15000
H1812       H  0.99024268  0.20726024  0.64559904     0.14700
C1813       C  0.99842679  0.60264596  0.76607227    -0.18100
C1814       C  0.99429159  0.57872761  0.78596670    -0.20300
C1815       C  0.98598207  0.58403505  0.81572339     0.20300
C1816       C  0.98072087  0.61378293  0.82512745    -0.03200
C1817       C  0.98470034  0.63795185  0.80498369    -0.06300
C1818       C  0.99409658  0.63232676  0.77548362     0.20600
C1819       C  0.98057885  0.66778299  0.81475627     0.18800
C1820       C  0.97156195  0.67302812  0.84430522    -0.17800
C1821       C  0.96751366  0.64911864  0.86418661    -0.20000
C1822       C  0.97254959  0.61950752  0.85494521     0.20300
C1823       C  0.97064093  0.59569610  0.87533928    -0.33000
C1824       C  0.97724546  0.56602426  0.86666483     0.01000
C1825       C  0.98401183  0.56030841  0.83648730    -0.24300
C1826       C  0.00036322  0.65650503  0.75637507    -0.28900
C1827       C  0.99739878  0.68628029  0.76625843     0.06600
C1828       C  0.98694393  0.69180446  0.79528449    -0.27600
H1829       H  0.00562347  0.59795276  0.74345462     0.11400
H1830       H  0.99831529  0.55610359  0.77825636     0.12500
H1831       H  0.96823669  0.69568433  0.85223836     0.11600
H1832       H  0.96111161  0.65385537  0.88703689     0.10800
H1833       H  0.96486367  0.60054655  0.89834337     0.16200
H1834       H  0.98893885  0.53764521  0.82941186     0.12100
H1835       H  0.00927819  0.65222417  0.73426547     0.15000
H1836       H  0.98553525  0.71466420  0.80324596     0.14700
C1837       C  0.01025611  0.76258328  0.60102440    -0.18100
C1838       C  0.00633004  0.78229636  0.57688928    -0.20300
C1839       C  0.99227903  0.81011030  0.58099086     0.20300
C1840       C  0.98085965  0.81740876  0.60951285    -0.03200
C1841       C  0.98471825  0.79743731  0.63389674    -0.06300
C1842       C  0.00012909  0.77026613  0.62970228     0.20600
C1843       C  0.97454586  0.80537552  0.66275474     0.18800
C1844       C  0.95930510  0.83258158  0.66652603    -0.17800
C1845       C  0.95541712  0.85229185  0.64239395    -0.20000
C1846       C  0.96678252  0.84524397  0.61403433     0.20300
C1847       C  0.96543282  0.86610712  0.59053566    -0.33000
C1848       C  0.97811277  0.85979472  0.56242201     0.01000
C1849       C  0.99060021  0.83124862  0.55751844    -0.24300
C1850       C  0.00664650  0.75207556  0.65451376    -0.28900
C1851       C  0.99823236  0.76064277  0.68360652     0.06600
C1852       C  0.98126039  0.78680951  0.68750366    -0.27600
H1853       H  0.02201220  0.74167936  0.59743485     0.11400
H1854       H  0.01507016  0.77614236  0.55519499     0.12500
H1855       H  0.95112963  0.83903335  0.68835087     0.11600
H1856       H  0.94427301  0.87349744  0.64613781     0.10800
H1857       H  0.95522729  0.88776621  0.59446030     0.16200
H1858       H  0.00032380  0.82604635  0.53598229     0.12100
H1859       H  0.01991778  0.73197671  0.65147452     0.15000
H1860       H  0.97512570  0.79371748  0.70987456     0.14700
C1861       C  0.17268448  0.69618440  0.55915754    -0.18100
C1862       C  0.14813604  0.67686601  0.55779009    -0.20300
C1863       C  0.14842039  0.65182289  0.53885543     0.20300
C1864       C  0.17446953  0.64540283  0.52236863    -0.03200
C1865       C  0.19920525  0.66502503  0.52358100    -0.06300
C1866       C  0.19797724  0.69095122  0.54147168     0.20600
C1867       C  0.22426079  0.65980385  0.50525862     0.18800
C1868       C  0.22530309  0.63389328  0.48761656    -0.17800
C1869       C  0.20115441  0.61413198  0.48695331    -0.20000
C1870       C  0.17534272  0.62011664  0.50359698     0.20300
C1871       C  0.15017523  0.60164819  0.50115886    -0.33000
C1872       C  0.12364118  0.60837430  0.51654705     0.01000
C1873       C  0.12302363  0.63346694  0.53559689    -0.24300
C1874       C  0.22068594  0.71251508  0.53917107    -0.28900
C1875       C  0.24378150  0.70911499  0.51820212     0.06600
C1876       C  0.24642647  0.68188193  0.50274891    -0.27600
H1877       H  0.17137649  0.71590601  0.57314963     0.11400
H1878       H  0.12861508  0.68197968  0.57095859     0.12500
H1879       H  0.24440282  0.62940812  0.47354538     0.11600
H1880       H  0.20227857  0.59466277  0.47260307     0.10800
H1881       H  0.15098629  0.58228645  0.48661140     0.16200
H1882       H  0.10297475  0.63847719  0.54805943     0.12100
H1883       H  0.21813033  0.73377780  0.55054848     0.15000
H1884       H  0.26374750  0.67944376  0.48606333     0.14700
C1885       C  0.84703608  0.39024352  0.54980527    -0.18100
C1886       C  0.82607432  0.36698417  0.54827761    -0.20300
C1887       C  0.82755713  0.34547021  0.52547496     0.20300
C1888       C  0.85116402  0.34705482  0.50461811    -0.03200
C1889       C  0.87263524  0.37014759  0.50649809    -0.06300
C1890       C  0.87019995  0.39229483  0.52880130     0.20600
C1891       C  0.89644130  0.37113256  0.48591793     0.18800
C1892       C  0.89880723  0.34899970  0.46386552    -0.17800
C1893       C  0.87730886  0.32655742  0.46166663    -0.20000
C1894       C  0.85332409  0.32562705  0.48174972     0.20300
C1895       C  0.83170813  0.30332651  0.47944201    -0.33000
C1896       C  0.80823600  0.30085342  0.50034570     0.01000
C1897       C  0.80619934  0.32225765  0.52331351    -0.24300
C1898       C  0.89095763  0.41599454  0.52963440    -0.28900
C1899       C  0.91463788  0.41708579  0.50905366     0.06600
C1900       C  0.91740214  0.39429258  0.48760688    -0.27600
H1901       H  0.84504834  0.40673188  0.56740261     0.11400
H1902       H  0.80847127  0.36603971  0.56477065     0.12500
H1903       H  0.91708236  0.34926485  0.44807162     0.11600
H1904       H  0.87944646  0.30989557  0.44422839     0.10800
H1905       H  0.83373802  0.28725339  0.46143590     0.16200
H1906       H  0.78865373  0.32041941  0.53980100     0.12100
H1907       H  0.88912473  0.43315945  0.54661212     0.15000
H1908       H  0.93573598  0.39490131  0.47185415     0.14700
C1909       C  0.14797329  0.32064612  0.56322095    -0.18100
C1910       C  0.12729591  0.34400713  0.56073034    -0.20300
C1911       C  0.13000459  0.36548082  0.53795286     0.20300
C1912       C  0.15451022  0.36410177  0.51822756    -0.03200
C1913       C  0.17535734  0.34035227  0.52065551    -0.06300
C1914       C  0.17160056  0.31820965  0.54284887     0.20600
C1915       C  0.19901323  0.33791830  0.49997988     0.18800
C1916       C  0.20233309  0.36018817  0.47797584    -0.17800
C1917       C  0.18190492  0.38394801  0.47581145    -0.20000
C1918       C  0.15765072  0.38587498  0.49551910     0.20300
C1919       C  0.13631249  0.40892049  0.49276749    -0.33000
C1920       C  0.11149235  0.40991581  0.51192212     0.01000
C1921       C  0.10847023  0.38808235  0.53438360    -0.24300
C1922       C  0.19015243  0.29289217  0.54298459    -0.28900
C1923       C  0.21212622  0.28891062  0.52094252     0.06600
C1924       C  0.21751817  0.31224911  0.50041661    -0.27600
H1925       H  0.14490356  0.30389664  0.58050538     0.11400
H1926       H  0.10883400  0.34493394  0.57627440     0.12500
H1927       H  0.22032908  0.35884052  0.46194038     0.11600
H1928       H  0.18474533  0.40050455  0.45829981     0.10800
H1929       H  0.13868622  0.42578202  0.47545080     0.16200
H1930       H  0.08959030  0.38905935  0.54944510     0.12100
H1931       H  0.18589979  0.27497961  0.55882330     0.15000
H1932       H  0.23417016  0.30922177  0.48317322     0.14700
C1933       C  0.90022112  0.69901465  0.52324890    -0.18100
C1934       C  0.87536292  0.71817649  0.52292460    -0.20300
C1935       C  0.84635071  0.70656660  0.52071788     0.20300
C1936       C  0.84232883  0.67530555  0.51986628    -0.03200
C1937       C  0.86741578  0.65600403  0.52010032    -0.06300
C1938       C  0.89660433  0.66783528  0.52127238     0.20600
C1939       C  0.86322981  0.62488811  0.51805021     0.18800
C1940       C  0.83428330  0.61315731  0.51652517    -0.17800
C1941       C  0.80955847  0.63220295  0.51594329    -0.20000
C1942       C  0.81330995  0.66331956  0.51712592     0.20300
C1943       C  0.78875967  0.68260335  0.51352897    -0.33000
C1944       C  0.79277779  0.71370582  0.51259139     0.01000
C1945       C  0.82148438  0.72557285  0.51729087    -0.24300
C1946       C  0.92149108  0.64833484  0.51966718    -0.28900
C1947       C  0.91738774  0.61714882  0.51687308     0.06600
C1948       C  0.88796967  0.60589190  0.51670293    -0.27600
H1949       H  0.92231610  0.70864716  0.52437091     0.11400
H1950       H  0.87888576  0.74215427  0.52362530     0.12500
H1951       H  0.83077883  0.58921116  0.51503422     0.11600
H1952       H  0.78751863  0.62259842  0.51384204     0.10800
H1953       H  0.76691793  0.67339742  0.50884647     0.16200
H1954       H  0.82479868  0.74955252  0.51544804     0.12100
H1955       H  0.94384238  0.65741913  0.52016586     0.15000
H1956       H  0.88399809  0.58204442  0.51487753     0.14700
C1957       C  0.12561206  0.55312197  0.33467023    -0.18100
C1958       C  0.14543559  0.55362154  0.31065320    -0.20300
C1959       C  0.17166755  0.53648082  0.31149703     0.20300
C1960       C  0.17877373  0.51975207  0.33731746    -0.03200
C1961       C  0.15875171  0.51939849  0.36175532    -0.06300
C1962       C  0.13172696  0.53557641  0.35999906     0.20600
C1963       C  0.16520957  0.50205529  0.38739754     0.18800
C1964       C  0.19214480  0.48590808  0.38860249    -0.17800
C1965       C  0.21178515  0.48589604  0.36416562    -0.20000
C1966       C  0.20505935  0.50224302  0.33809637     0.20300
C1967       C  0.22294802  0.49992385  0.31217215    -0.33000
C1968       C  0.21451944  0.51481254  0.28565341     0.01000
C1969       C  0.18979417  0.53427193  0.28618339    -0.24300
C1970       C  0.11087213  0.53341768  0.38318847    -0.28900
C1971       C  0.11660690  0.51568576  0.40855016     0.06600
C1972       C  0.14424979  0.50063126  0.41089698    -0.27600
H1973       H  0.10513543  0.56593486  0.33313563     0.11400
H1974       H  0.13975349  0.56667488  0.29098535     0.12500
H1975       H  0.19766295  0.47261058  0.40814951     0.11600
H1976       H  0.23188694  0.47247026  0.36538316     0.10800
H1977       H  0.24177083  0.48468740  0.31189601     0.16200
H1978       H  0.18322655  0.54590781  0.26587586     0.12100
H1979       H  0.09002807  0.54563292  0.38150247     0.15000
H1980       H  0.14899949  0.48709966  0.43050467     0.14700
C1981       C  0.83183450  0.52424668  0.40138281    -0.18100
C1982       C  0.81032614  0.52146896  0.37865910    -0.20300
C1983       C  0.81892906  0.51708480  0.34878115     0.20300
C1984       C  0.84962438  0.51664269  0.34179890    -0.03200
C1985       C  0.87129054  0.51938820  0.36469641    -0.06300
C1986       C  0.86242449  0.52270398  0.39473418     0.20600
C1987       C  0.90185828  0.51791502  0.35753373     0.18800
C1988       C  0.91057720  0.51466477  0.32763563    -0.17800
C1989       C  0.88923795  0.51200597  0.30506827    -0.20000
C1990       C  0.85879854  0.51243906  0.31200854     0.20300
C1991       C  0.83754629  0.50743528  0.28972130    -0.33000
C1992       C  0.80697161  0.50585082  0.29648770     0.01000
C1993       C  0.79764316  0.51187080  0.32597204    -0.24300
C1994       C  0.88428613  0.52369426  0.41751440    -0.28900
C1995       C  0.91494590  0.52133127  0.41057058     0.06600
C1996       C  0.92329936  0.51898518  0.38033479    -0.27600
H1997       H  0.82450899  0.52703038  0.42426947     0.11400
H1998       H  0.78694540  0.52210140  0.38457069     0.12500
H1999       H  0.93395198  0.51363444  0.32174410     0.11600
H2000       H  0.89657540  0.50889630  0.28222117     0.10800
H2001       H  0.84507323  0.50362048  0.26702882     0.16200
H2002       H  0.77415795  0.51095355  0.33143214     0.12100
H2003       H  0.87737938  0.52573753  0.44061704     0.15000
H2004       H  0.94663672  0.51728959  0.37441522     0.14700
C2005       C  0.19874821  0.49269625  0.61406196    -0.18100
C2006       C  0.22217218  0.49461298  0.63470497    -0.20300
C2007       C  0.21857846  0.51044305  0.66153512     0.20300
C2008       C  0.19137726  0.52539241  0.66705753    -0.03200
C2009       C  0.16750786  0.52296760  0.64647440    -0.06300
C2010       C  0.17116697  0.50629769  0.62000341     0.20600
C2011       C  0.13974510  0.53643841  0.65284760     0.18800
C2012       C  0.13649512  0.55320222  0.67911353    -0.17800
C2013       C  0.16013197  0.55571757  0.69942195    -0.20000
C2014       C  0.18745056  0.54135798  0.69391439     0.20300
C2015       C  0.20996987  0.54062862  0.71580983    -0.33000
C2016       C  0.23597324  0.52338206  0.71168987     0.01000
C2017       C  0.24073370  0.50958687  0.68389697    -0.24300
C2018       C  0.14712236  0.50325521  0.60010975    -0.28900
C2019       C  0.11920954  0.51621251  0.60651294     0.06600
C2020       C  0.11570239  0.53272571  0.63300242    -0.27600
H2021       H  0.20199695  0.47996284  0.59374138     0.11400
H2022       H  0.24288608  0.48307798  0.63000299     0.12500
H2023       H  0.11547086  0.56386437  0.68426055     0.11600
H2024       H  0.15671878  0.56812436  0.71991265     0.10800
H2025       H  0.20574177  0.55050944  0.73751986     0.16200
H2026       H  0.26019917  0.49550247  0.68092296     0.12100
H2027       H  0.15006121  0.49053763  0.57970891     0.15000
H2028       H  0.09445932  0.54320730  0.63785545     0.14700
C2029       C  0.81028364  0.53763292  0.63675827    -0.18100
C2030       C  0.83310958  0.53761520  0.61536283    -0.20300
C2031       C  0.86294299  0.53290875  0.62388213     0.20300
C2032       C  0.86988494  0.52943024  0.65445431    -0.03200
C2033       C  0.84683338  0.52981326  0.67614064    -0.06300
C2034       C  0.81679222  0.53320643  0.66718149     0.20600
C2035       C  0.85373309  0.52519944  0.70658773     0.18800
C2036       C  0.88357810  0.52117287  0.71521543    -0.17800
C2037       C  0.90632007  0.52084097  0.69380855    -0.20000
C2038       C  0.89972289  0.52449141  0.66330221     0.20300
C2039       C  0.92235157  0.52253099  0.64153665    -0.33000
C2040       C  0.91571693  0.52520349  0.61079566     0.01000
C2041       C  0.88579487  0.53086464  0.60234215    -0.24300
C2042       C  0.79379176  0.53011527  0.68846446    -0.28900
C2043       C  0.80051823  0.52394848  0.71859219     0.06600
C2044       C  0.83058800  0.52266218  0.72758110    -0.27600
H2045       H  0.78743017  0.54040370  0.62939622     0.11400
H2046       H  0.82731443  0.54055507  0.59201038     0.12500
H2047       H  0.88928348  0.51751057  0.73849496     0.11600
H2048       H  0.92906283  0.51710957  0.70109020     0.10800
H2049       H  0.94508942  0.51830682  0.64857567     0.16200
H2050       H  0.88012132  0.53331547  0.57889671     0.12100
H2051       H  0.77073483  0.53007220  0.68121201     0.15000
H2052       H  0.83588355  0.51684024  0.75055686     0.14700
C2053       C  0.04556029  0.61568225  0.29663747    -0.18100
C2054       C  0.04386844  0.59891039  0.32291803    -0.20300
C2055       C  0.03943977  0.61313887  0.35049753     0.20300
C2056       C  0.03815426  0.64454809  0.35199630    -0.03200
C2057       C  0.04013913  0.66153441  0.32542200    -0.06300
C2058       C  0.04296896  0.64691558  0.29758069     0.20600
C2059       C  0.03769412  0.69294735  0.32654312     0.18800
C2060       C  0.03492635  0.70718440  0.35439508    -0.17800
C2061       C  0.03288283  0.69028574  0.38079020    -0.20000
C2062       C  0.03370889  0.65886884  0.37981635     0.20300
C2063       C  0.02939023  0.64148115  0.40588258    -0.33000
C2064       C  0.02948027  0.61000934  0.40422851     0.01000
C2065       C  0.03539243  0.59628297  0.37641738    -0.24300
C2066       C  0.04100345  0.66347023  0.27105039    -0.28900
C2067       C  0.03549479  0.69438444  0.27188072     0.06600
C2068       C  0.03587972  0.70927903  0.29972529    -0.27600
H2069       H  0.04791540  0.60415317  0.27548560     0.11400
H2070       H  0.04514827  0.57472078  0.32156681     0.12500
H2071       H  0.03326816  0.73135407  0.35567618     0.11600
H2072       H  0.02987747  0.70177491  0.40187062     0.10800
H2073       H  0.02533316  0.65234933  0.42711788     0.16200
H2074       H  0.03639414  0.57210664  0.37458923     0.12100
H2075       H  0.04131140  0.65186152  0.24979808     0.15000
H2076       H  0.03211920  0.73323896  0.30073926     0.14700
C2077       C  0.03256175  0.36179244  0.70111639    -0.18100
C2078       C  0.02858250  0.38800666  0.68426091    -0.20300
C2079       C  0.02886431  0.38696216  0.65290128     0.20300
C2080       C  0.03411080  0.35925532  0.63853899    -0.03200
C2081       C  0.03828339  0.33293480  0.65546577    -0.06300
C2082       C  0.03691674  0.33411203  0.68687554     0.20600
C2083       C  0.04253428  0.30522641  0.64084711     0.18800
C2084       C  0.04364336  0.30416993  0.60960016    -0.17800
C2085       C  0.03957079  0.33019691  0.59286284    -0.20000
C2086       C  0.03439205  0.35761601  0.60717254     0.20300
C2087       C  0.02910999  0.38331070  0.59042272    -0.33000
C2088       C  0.02335172  0.41111296  0.60421041     0.01000
C2089       C  0.02362655  0.41289729  0.63559424    -0.24300
C2090       C  0.03796140  0.30735683  0.70329770    -0.28900
C2091       C  0.03941497  0.27945827  0.68854651     0.06600
C2092       C  0.04357760  0.27876510  0.65752171    -0.27600
H2093       H  0.03148666  0.36305537  0.72527882     0.11400
H2094       H  0.02474542  0.40898660  0.69574309     0.12500
H2095       H  0.04686374  0.28309721  0.59808697     0.11600
H2096       H  0.03996624  0.32879732  0.56868281     0.10800
H2097       H  0.02965523  0.38139789  0.56627458     0.16200
H2098       H  0.01952723  0.43417489  0.64643790     0.12100
H2099       H  0.03516725  0.30825275  0.72734470     0.15000
H2100       H  0.04518049  0.25748485  0.64602493     0.14700
C2101       C  0.09059127  0.70814774  0.63374942    -0.18100
C2102       C  0.08021969  0.68826514  0.61195834    -0.20300
C2103       C  0.07187936  0.65897334  0.61980583     0.20300
C2104       C  0.07616834  0.64895206  0.64945677    -0.03200
C2105       C  0.08682442  0.66889689  0.67134205    -0.06300
C2106       C  0.09251329  0.69904971  0.66373498     0.20600
C2107       C  0.08867626  0.65966905  0.70152934     0.18800
C2108       C  0.08240563  0.62988017  0.70914691    -0.17800
C2109       C  0.07168141  0.61014519  0.68746446    -0.20000
C2110       C  0.06759175  0.61976910  0.65781038     0.20300
C2111       C  0.05399473  0.60108689  0.63671444    -0.33000
C2112       C  0.04865800  0.61106215  0.60723495     0.01000
C2113       C  0.05823424  0.63996151  0.59888168    -0.24300
C2114       C  0.09523971  0.72019958  0.68674562    -0.28900
C2115       C  0.08690393  0.71153027  0.71585581     0.06600
C2116       C  0.09206259  0.68143793  0.72380248    -0.27600
H2117       H  0.09503762  0.73116228  0.62750029     0.11400
H2118       H  0.07734354  0.69625478  0.58924161     0.12500
H2119       H  0.08368946  0.62244694  0.73219917     0.11600
H2120       H  0.06535416  0.58772241  0.69417036     0.10800
H2121       H  0.04727910  0.57878915  0.64346963     0.16200
H2122       H  0.05477710  0.64784496  0.57620192     0.12100
H2123       H  0.09515781  0.74379373  0.68093028     0.15000
H2124       H  0.08966162  0.67470331  0.74699298     0.14700
C2125       C  0.03006248  0.31566163  0.11276713    -0.18100
C2126       C  0.02866233  0.29602850  0.13724771    -0.20300
C2127       C  0.00218713  0.29293682  0.15364402     0.20300
C2128       C  0.97657530  0.30904042  0.14458407    -0.03200
C2129       C  0.97813951  0.32926408  0.12026108    -0.06300
C2130       C  0.00512297  0.33286952  0.10447643     0.20600
C2131       C  0.95298607  0.34671278  0.11250094     0.18800
C2132       C  0.92617952  0.34275228  0.12802677    -0.17800
C2133       C  0.92457657  0.32260086  0.15193869    -0.20000
C2134       C  0.94979706  0.30618623  0.16082422     0.20300
C2135       C  0.94921176  0.28850111  0.18678525    -0.33000
C2136       C  0.97507396  0.27396626  0.19698534     0.01000
C2137       C  0.00128908  0.27552206  0.17993314    -0.24300
C2138       C  0.00678783  0.35415405  0.08124992    -0.28900
C2139       C  0.98207635  0.37237420  0.07444173     0.06600
C2140       C  0.95523902  0.36833220  0.08985104    -0.27600
H2141       H  0.05090442  0.31799194  0.10082775     0.11400
H2142       H  0.04849860  0.28375717  0.14376899     0.12500
H2143       H  0.90662087  0.35577775  0.12212814     0.11600
H2144       H  0.90383399  0.32056231  0.16409626     0.10800
H2145       H  0.92923846  0.28786361  0.20036698     0.16200
H2146       H  0.02143057  0.26491122  0.18823849     0.12100
H2147       H  0.02739497  0.35711716  0.06900369     0.15000
H2148       H  0.93607489  0.38202260  0.08406457     0.14700
C2149       C  0.00377172  0.12429152  0.28087019    -0.18100
C2150       C  0.00654702  0.09951059  0.30006500    -0.20300
C2151       C  0.99068618  0.09835396  0.32710685     0.20300
C2152       C  0.97107196  0.12197705  0.33431445    -0.03200
C2153       C  0.96783311  0.14666165  0.31469751    -0.06300
C2154       C  0.98478520  0.14822702  0.28814317     0.20600
C2155       C  0.94849878  0.17034765  0.32232019     0.18800
C2156       C  0.93182358  0.16879673  0.34874913    -0.17800
C2157       C  0.93517483  0.14450134  0.36818147    -0.20000
C2158       C  0.95518621  0.12134194  0.36150746     0.20300
C2159       C  0.95977775  0.09777130  0.38175261    -0.33000
C2160       C  0.97944749  0.07427517  0.37502939     0.01000
C2161       C  0.99438271  0.07433667  0.34731899    -0.31500
C2162       C  0.98362039  0.17436802  0.27034929    -0.28900
C2163       C  0.96585728  0.19877432  0.27914605     0.06600
C2164       C  0.94740023  0.19596692  0.30432825    -0.27600
H2165       H  0.01689269  0.12496867  0.26058277     0.11400
H2166       H  0.02161659  0.08153585  0.29405820     0.12500
H2167       H  0.91673921  0.18675824  0.35478187     0.11600
H2168       H  0.92238208  0.14401071  0.38862471     0.10800
H2169       H  0.94768054  0.09745913  0.40265017     0.16200
H2170       H  0.00938384  0.05610381  0.34186569     0.12100
H2171       H  0.99814484  0.17660729  0.25115183     0.15000
H2172       H  0.93368629  0.21478137  0.31112611     0.14700
C2173       C  0.01314925  0.40559386  0.32711942    -0.18100
C2174       C  0.00785773  0.38354782  0.30563295    -0.20300
C2175       C  0.99949936  0.35456012  0.31432244     0.20300
C2176       C  0.99666900  0.34761624  0.34497643    -0.03200
C2177       C  0.00203117  0.36984897  0.36665302    -0.06300
C2178       C  0.01013705  0.39902784  0.35765782     0.20600
C2179       C  0.99888706  0.36297303  0.39727110     0.18800
C2180       C  0.99064014  0.33395260  0.40599971    -0.17800
C2181       C  0.98535932  0.31191214  0.38451975    -0.20000
C2182       C  0.98824446  0.31855203  0.35397540     0.20300
C2183       C  0.98279151  0.29665744  0.33228706    -0.33000
C2184       C  0.98559460  0.30337303  0.30162286     0.01000
C2185       C  0.99389956  0.33244489  0.29287568    -0.24300
C2186       C  0.01453170  0.42126768  0.37930005    -0.28900
C2187       C  0.01084114  0.41475179  0.40986678     0.06600
C2188       C  0.00346495  0.38536247  0.41862146    -0.27600
H2189       H  0.01937432  0.42786527  0.31983006     0.11400
H2190       H  0.01017014  0.38921788  0.28218520     0.12500
H2191       H  0.98806751  0.32835702  0.42944221     0.11600
H2192       H  0.97889426  0.28970113  0.39179539     0.10800
H2193       H  0.97633585  0.27437389  0.33937709     0.16200
H2194       H  0.99620157  0.33788667  0.26936679     0.12100
H2195       H  0.02037764  0.44374196  0.37227898     0.15000
H2196       H  0.00047410  0.37999084  0.44207250     0.14700
loop_ 
_geom_bond_atom_site_label_1 
_geom_bond_atom_site_label_2 
_geom_bond_distance 
_geom_bond_site_symmetry_2 
_ccdc_geom_bond_type 
C1            N2   1.358       .  A
C1            N6   1.367       .  A
C1         C2136   1.472       .  S
N2            C3   1.355       .  A
C3            N4   1.351       .  A
C3         C2184   1.482       .  S
N4            C5   1.356       .  A
C5            N6   1.366       .  A
C5         C2163   1.477       .  S
O7           C18   1.292       .  A
O7          Eu43   2.462       .  S
O8           C19   1.297       .  A
O8          Eu42   2.497       .  S
O9           C20   1.292       .  A
O9          Eu15   2.463       .  S
O10          C21   1.289       .  A
O10         Eu15   2.449   1_655  S
O11          C21   1.297       .  A
O11         Eu45   2.498       .  S
O12          C20   1.291       .  A
O12         Eu44   2.469       .  S
O13          C19   1.283       .  A
O13         Eu15   2.400       .  S
O14          C18   1.289       .  A
O14         Eu15   2.444       .  S
Eu15         O25   2.336   1_455  S
Eu15         O17   2.343       .  S
Eu15         O16   2.362   1_455  S
Eu15         O23   2.349       .  S
O16         Eu45   2.352       .  S
O16         Eu42   2.360   1_655  S
O17         Eu43   2.343       .  S
O17         Eu44   2.348       .  S
C18        C2187   1.483       .  S
C19        C2088   1.482       .  S
C20        C1920   1.480       .  S
C21        C1899   1.484       .  S
H22          O23   0.966       .  S
O23         Eu44   2.349       .  S
O23         Eu42   2.364       .  S
H24          O25   0.966       .  S
O25         Eu43   2.346   1_655  S
O25         Eu45   2.351       .  S
O26          C49   1.293       .  A
O26         Eu42   2.461       .  S
O27          C50   1.284       .  A
O27         Eu43   2.404       .  S
O28          C51   1.289       .  A
O28         Eu44   2.445       .  S
O29          C52   1.293       .  A
O29         Eu45   2.468       .  S
O30          C53   1.294       .  A
O30         Eu45   2.477       .  S
O31          C54   1.290       .  A
O31         Eu44   2.458       .  S
O32          C55   1.299       .  A
O32         Eu46   2.506       .  S
O33          C56   1.301       .  A
O33         Eu46   2.520   1_655  S
O34          C55   1.290       .  A
O34         Eu44   2.454       .  S
O35          C56   1.288       .  A
O35         Eu45   2.431       .  S
O36          C51   1.295       .  A
O36         Eu42   2.481       .  S
O37          C54   1.297       .  A
O37         Eu43   2.492       .  S
O38          C53   1.297       .  A
O38         Eu43   2.480   1_655  S
O39          C52   1.301       .  A
O39         Eu42   2.512   1_655  S
O40          C49   1.294       .  A
O40         Eu46   2.472       .  S
O41          C50   1.301       .  A
O41         Eu46   2.521       .  S
Eu42         O60   2.369   1_455  S
Eu42         O48   2.351       .  S
Eu43         O47   2.365   1_455  S
Eu43         O58   2.360       .  S
Eu44         O58   2.356       .  S
Eu44         O48   2.343       .  S
Eu45         O47   2.372       .  S
Eu45         O60   2.377       .  S
Eu46         O47   2.369   1_455  S
Eu46         O58   2.369       .  S
Eu46         O60   2.389   1_455  S
Eu46         O48   2.350       .  S
C49        C2112   1.491       .  S
C50        C2064   1.491       .  S
C51        C2019   1.483       .  S
C52        C2040   1.507       .  S
C53        C1995   1.499       .  S
C54        C1971   1.489       .  S
C55        C1872   1.493       .  S
C56        C1947   1.500       .  S
H57          O58   0.965       .  S
H59          O60   0.965       .  S
C61          N62   1.369   1_455  A
C61          N66   1.355       .  A
C61        C1827   1.478   1_455  S
N62          C63   1.369   1_655  A
C63          N64   1.356       .  A
C63        C1851   1.483   1_455  S
N64          C65   1.355       .  A
C65          N66   1.355       .  A
C65        C2115   1.491       .  S
C67          N68   1.349       .  A
C67          N72   1.375       .  A
C67        C1779   1.476   1_455  S
N68          C69   1.344       .  A
C69          N70   1.355       .  A
C69        C2091   1.478       .  S
N70          C71   1.361       .  A
C71          N72   1.376       .  A
C71        C1803   1.498       .  S
C73          N74   1.361   1_655  A
C73          N78   1.369       .  A
C73        C1728   1.483       .  S
N74          C75   1.357       .  A
C75          N76   1.347       .  A
C75        C2067   1.483       .  S
N76          C77   1.353   1_455  A
C77          N78   1.367       .  A
C77        C1752   1.469       .  S
O79          C90   1.288       .  A
O79        Eu115   2.450   1_545  S
O80          C91   1.297       .  A
O80        Eu114   2.498   1_545  S
O81          C92   1.282       .  A
O81         Eu87   2.389       .  S
O82          C93   1.290       .  A
O82         Eu87   2.446   1_455  S
O83          C93   1.292       .  A
O83        Eu117   2.463   1_545  S
O84          C92   1.291       .  A
O84        Eu116   2.462   1_545  S
O85          C91   1.293       .  A
O85         Eu87   2.463       .  S
O86          C90   1.296       .  A
O86         Eu87   2.484       .  S
Eu87         O97   2.338   1_655  S
Eu87         O89   2.346   1_545  S
Eu87         O88   2.326   1_645  S
Eu87         O95   2.366   1_545  S
O88        Eu117   2.326       .  S
O88        Eu114   2.343   1_455  S
O89        Eu115   2.348       .  S
O89        Eu116   2.359       .  S
C90        C2160   1.483       .  S
C91        C1800   1.502       .  S
C92        C1683   1.462       .  S
C93        C1707   1.483       .  S
H94          O95   0.966   1_545  S
O95        Eu116   2.358       .  S
O95        Eu114   2.361       .  S
H96          O97   0.965       .  S
O97        Eu115   2.356   1_445  S
O97        Eu117   2.355   1_545  S
O98         C121   1.293       .  A
O98        Eu114   2.461       .  S
O99         C122   1.290       .  A
O99        Eu115   2.450       .  S
O100        C123   1.300       .  A
O100       Eu116   2.506       .  S
O101        C124   1.295       .  A
O101       Eu117   2.469       .  S
O102        C125   1.291       .  A
O102       Eu117   2.453       .  S
O103        C126   1.296       .  A
O103       Eu116   2.484       .  S
O104        C127   1.293       .  A
O104       Eu118   2.464       .  S
O105        C128   1.294       .  A
O105       Eu118   2.482   1_455  S
O106        C127   1.291       .  A
O106       Eu116   2.446       .  S
O107        C128   1.288       .  A
O107       Eu117   2.431       .  S
O108        C123   1.295       .  A
O108       Eu114   2.484       .  S
O109        C126   1.292       .  A
O109       Eu115   2.466       .  S
O110        C125   1.289       .  A
O110       Eu115   2.448   1_455  S
O111        C124   1.295       .  A
O111       Eu114   2.480   1_455  S
O112        C121   1.297       .  A
O112       Eu118   2.487       .  S
O113        C122   1.297       .  A
O113       Eu118   2.493       .  S
Eu114       O132   2.379   1_655  S
Eu114       O120   2.371       .  S
Eu115       O119   2.355   1_655  S
Eu115       O130   2.336       .  S
Eu116       O130   2.354       .  S
Eu116       O120   2.366       .  S
Eu117       O119   2.352       .  S
Eu117       O132   2.366       .  S
Eu118       O119   2.355   1_655  S
Eu118       O130   2.349       .  S
Eu118       O132   2.376   1_655  S
Eu118       O120   2.379       .  S
C121       C1848   1.492       .  S
C122       C1755   1.486       .  S
C123       C1536   1.507       .  S
C124       C1563   1.496       .  S
C125       C1584   1.470       .  S
C126       C1611   1.485       .  S
C127       C1656   1.480       .  S
C128       C1632   1.486       .  S
H129        O130   0.964       .  S
H131        O132   0.968       .  S
C133        N134   1.363       .  A
C133        N138   1.374       .  A
C133       C1923   1.487       .  S
N134        C135   1.354       .  A
C135        N136   1.347       .  A
C135       C1704   1.482       .  S
N136        C137   1.351       .  A
C137        N138   1.371       .  A
C137       C1515   1.483       .  S
C139        N140   1.350       .  A
C139        N144   1.377       .  A
C139       C1488   1.475       .  S
N140        C141   1.342       .  A
C141        N142   1.344       .  A
C141       C1680   1.465       .  S
N142        C143   1.354       .  A
C143        N144   1.378       .  A
C143       C1896   1.495       .  S
C145        N146   1.369       .  A
C145        N150   1.358       .  A
C145       C1464   1.485       .  S
N146        C147   1.369       .  A
C147        N148   1.354       .  A
C147       C1944   1.474       .  S
N148        C149   1.352       .  A
C149        N150   1.357       .  A
C149       C1659   1.487       .  S
C151        N152   1.352       .  A
C151        N156   1.368       .  A
C151       C1875   1.474       .  S
N152        C153   1.349       .  A
C153        N154   1.358       .  A
C153       C1635   1.482       .  S
N154        C155   1.361       .  A
C155        N156   1.370       .  A
C155       C1440   1.485       .  S
C157        N158   1.362       .  A
C157        N162   1.374       .  A
C157       C1392   1.488       .  S
N158        C159   1.353       .  A
C159        N160   1.342       .  A
C159       C1419   1.471       .  S
N160        C161   1.348       .  A
C161        N162   1.371       .  A
C161       C1608   1.471       .  S
O163        C174   1.289       .  A
O163       Eu199   2.452       .  S
O164        C175   1.297       .  A
O164       Eu198   2.489       .  S
O165        C176   1.290       .  A
O165       Eu171   2.450       .  S
O166        C177   1.287       .  A
O166       Eu171   2.419       .  S
O167        C177   1.291       .  A
O167       Eu201   2.456       .  S
O168        C176   1.292       .  A
O168       Eu200   2.458       .  S
O169        C175   1.293       .  A
O169       Eu171   2.464   1_565  S
O170        C174   1.294       .  A
O170       Eu171   2.478       .  S
Eu171       O181   2.349       .  S
Eu171       O173   2.344       .  S
Eu171       O172   2.367   1_545  S
Eu171       O179   2.346   1_545  S
O172       Eu201   2.355   1_565  S
O172       Eu198   2.356       .  S
O173       Eu199   2.360       .  S
O173       Eu200   2.348       .  S
C174       C1512   1.477       .  S
C175       C1443   1.497       .  S
C176       C1320   1.483       .  S
C177       C1368   1.467       .  S
H178        O179   0.966       .  S
O179       Eu200   2.339   1_565  S
O179       Eu198   2.359       .  S
H180        O181   0.969       .  S
O181       Eu199   2.345       .  S
O181       Eu201   2.363       .  S
O182        C205   1.294       .  A
O182       Eu198   2.469       .  S
O183        C206   1.292       .  A
O183       Eu199   2.467       .  S
O184        C207   1.299       .  A
O184       Eu200   2.498   1_565  S
O185        C208   1.300       .  A
O185       Eu201   2.514   1_565  S
O186        C209   1.293       .  A
O186       Eu201   2.469       .  S
O187        C210   1.294       .  A
O187       Eu200   2.471       .  S
O188        C211   1.291       .  A
O188       Eu202   2.464       .  S
O189        C212   1.289       .  A
O189       Eu202   2.438       .  S
O190        C211   1.285       .  A
O190       Eu200   2.405       .  S
O191        C212   1.288       .  A
O191       Eu201   2.437       .  S
O192        C207   1.291       .  A
O192       Eu198   2.458       .  S
O193        C210   1.290       .  A
O193       Eu199   2.457       .  S
O194        C209   1.291       .  A
O194       Eu199   2.460       .  S
O195        C208   1.289       .  A
O195       Eu198   2.442       .  S
O196        C205   1.297       .  A
O196       Eu202   2.491   1_565  S
O197        C206   1.297       .  A
O197       Eu202   2.499       .  S
Eu198       O216   2.371       .  S
Eu198       O204   2.356       .  S
Eu199       O203   2.337       .  S
Eu199       O214   2.351       .  S
Eu200       O214   2.366       .  S
Eu200       O204   2.350   1_545  S
Eu201       O203   2.350       .  S
Eu201       O216   2.362   1_545  S
Eu202       O203   2.339       .  S
Eu202       O214   2.350       .  S
Eu202       O216   2.375   1_545  S
Eu202       O204   2.361   1_545  S
C205       C1467   1.497       .  S
C206       C1491   1.494       .  S
C207       C1251   1.495       .  S
C208       C1296   1.503       .  S
C209       C1272   1.477       .  S
C210       C1227   1.479       .  S
C211       C1416   1.464       .  S
C212       C1347   1.474       .  S
H213        O214   0.965       .  S
H215        O216   0.958       .  S
C217        N218   1.378       .  A
C217        N222   1.350   1_565  A
C217       C1200   1.476       .  S
N218        C219   1.378       .  A
C219        N220   1.359   1_565  A
C219       C1560   1.505       .  S
N220        C221   1.348       .  A
C221        N222   1.342       .  A
C221       C1371   1.474       .  S
C223        N224   1.376       .  A
C223        N228   1.353   1_565  A
C223       C1176   1.487       .  S
N224        C225   1.377       .  A
C225        N226   1.358   1_565  A
C225       C1539   1.497       .  S
N226        C227   1.356       .  A
C227        N228   1.352       .  A
C227       C1344   1.486       .  S
C229        N230   1.356       .  A
C229        N234   1.364       .  A
C229       C1152   1.470       .  S
N230        C231   1.352   1_565  A
C231        N232   1.350   1_545  A
C231       C1323   1.476       .  S
N232        C233   1.355       .  A
C233        N234   1.364       .  A
C233       C1587   1.463       .  S
O235        C246   1.295       .  A
O235       Eu271   2.486   1_554  S
O236        C247   1.290       .  A
O236       Eu270   2.453   1_554  S
O237        C248   1.291       .  A
O237       Eu243   2.451   1_545  S
O238        C249   1.282       .  A
O238       Eu243   2.399       .  S
O239        C249   1.296       .  A
O239       Eu273   2.502   1_554  S
O240        C248   1.288       .  A
O240       Eu272   2.434   1_554  S
O241        C247   1.294       .  A
O241       Eu243   2.475       .  S
O242        C246   1.296       .  A
O242       Eu243   2.480       .  S
Eu243       O253   2.359       .  S
Eu243       O245   2.342       .  S
Eu243       O244   2.343       .  S
Eu243       O251   2.354   1_565  S
O244       Eu273   2.352   1_554  S
O244       Eu270   2.345   1_554  S
O245       Eu271   2.344   1_554  S
O245       Eu272   2.342   1_564  S
C246       C1395   1.499       .  S
C247       C1155   1.484       .  S
C248       C1128   1.474       .  S
C249       C1104   1.489       .  S
H250        O251   0.966       .  S
O251       Eu272   2.352   1_554  S
O251       Eu270   2.354   1_544  S
H252        O253   0.965       .  S
O253       Eu271   2.369   1_554  S
O253       Eu273   2.365   1_554  S
O254        C277   1.293       .  A
O254       Eu270   2.470       .  S
O255        C278   1.291       .  A
O255       Eu271   2.455       .  S
O256        C279   1.295       .  A
O256       Eu272   2.475       .  S
O257        C280   1.297       .  A
O257       Eu273   2.497       .  S
O258        C281   1.300       .  A
O258       Eu273   2.508       .  S
O259        C282   1.296       .  A
O259       Eu272   2.480       .  S
O260        C283   1.295       .  A
O260       Eu274   2.486   1_545  S
O261        C284   1.290       .  A
O261       Eu274   2.443       .  S
O262        C283   1.285       .  A
O262       Eu272   2.411       .  S
O263        C284   1.292       .  A
O263       Eu273   2.453       .  S
O264        C279   1.288       .  A
O264       Eu270   2.444   1_545  S
O265        C282   1.294       .  A
O265       Eu271   2.481   1_545  S
O266        C281   1.288       .  A
O266       Eu271   2.431       .  S
O267        C280   1.288       .  A
O267       Eu270   2.442       .  S
O268        C277   1.295       .  A
O268       Eu274   2.485       .  S
O269        C278   1.298       .  A
O269       Eu274   2.499       .  S
Eu270       O288   2.328       .  S
Eu270       O276   2.346   1_565  S
Eu271       O275   2.371       .  S
Eu271       O286   2.362   1_565  S
Eu272       O286   2.356       .  S
Eu272       O276   2.346       .  S
Eu273       O275   2.378       .  S
Eu273       O288   2.354       .  S
Eu274       O275   2.371       .  S
Eu274       O286   2.362   1_565  S
Eu274       O288   2.358       .  S
Eu274       O276   2.351   1_565  S
C277       C1203   1.484       .  S
C278       C1179   1.500       .  S
C279       C1032   1.478       .  S
C280        C984   1.480       .  S
C281       C1008   1.495       .  S
C282        C960   1.493       .  S
C283       C1056   1.481       .  S
C284       C1080   1.475       .  S
H285        O286   0.965       .  S
H287        O288   0.963       .  S
C289        N290   1.353       .  A
C289        N294   1.367       .  A
C289       C1224   1.472       .  S
N290        C291   1.346       .  A
C291        N292   1.351       .  A
C291       C1131   1.475       .  S
N292        C293   1.359       .  A
C293        N294   1.368       .  A
C293        C936   1.471       .  S
C295        N296   1.348       .  A
C295        N300   1.369       .  A
C295        C912   1.474       .  S
N296        C297   1.344       .  A
C297        N298   1.359       .  A
C297       C1107   1.482       .  S
N298        C299   1.365       .  A
C299        N300   1.373       .  A
C299       C1248   1.488       .  S
C301        N302   1.367       .  A
C301        N306   1.356       .  A
C301        C891   1.477       .  S
N302        C303   1.367       .  A
C303        N304   1.355       .  A
C303       C1299   1.474       .  S
N304        C305   1.355       .  A
C305        N306   1.356       .  A
C305       C1083   1.488       .  S
C307        N308   1.353       .  A
C307        N312   1.370       .  A
C307       C1275   1.470       .  S
N308        C309   1.348       .  A
C309        N310   1.353       .  A
C309       C1059   1.477       .  S
N310        C311   1.357       .  A
C311        N312   1.371       .  A
C311        C864   1.486       .  S
O313        C324   1.288       .  A
O313       Eu349   2.448   1_554  S
O314        C325   1.294       .  A
O314       Eu348   2.472   1_554  S
O315        C326   1.290       .  A
O315       Eu321   2.449   1_455  S
O316        C327   1.286       .  A
O316       Eu321   2.420       .  S
O317        C327   1.296       .  A
O317       Eu351   2.491   1_554  S
O318        C326   1.288       .  A
O318       Eu350   2.433   1_554  S
O319        C325   1.296       .  A
O319       Eu321   2.483       .  S
O320        C324   1.294       .  A
O320       Eu321   2.478       .  S
Eu321       O331   2.361       .  S
Eu321       O323   2.346   1_655  S
Eu321       O322   2.355   1_554  S
Eu321       O329   2.353   1_655  S
O322       Eu351   2.361       .  S
O322       Eu348   2.362       .  S
O323       Eu349   2.348   1_454  S
O323       Eu350   2.344   1_554  S
C324       C2139   1.471       .  S
C325       C1731   1.497       .  S
C326        C816   1.475       .  S
C327        C840   1.477       .  S
H328        O329   0.967       .  S
O329       Eu350   2.337   1_554  S
O329       Eu348   2.342   1_454  S
H330        O331   0.968       .  S
O331       Eu349   2.357   1_554  S
O331       Eu351   2.362   1_554  S
O332        C355   1.289       .  A
O332       Eu348   2.440       .  S
O333        C356   1.291       .  A
O333       Eu349   2.460       .  S
O334        C357   1.294       .  A
O334       Eu350   2.475       .  S
O335        C358   1.301       .  A
O335       Eu351   2.518       .  S
O336        C359   1.298       .  A
O336       Eu351   2.503       .  S
O337        C360   1.291       .  A
O337       Eu350   2.454       .  S
O338        C361   1.294       .  A
O338       Eu352   2.481   1_455  S
O339        C362   1.288       .  A
O339       Eu352   2.433       .  S
O340        C361   1.282       .  A
O340       Eu350   2.396       .  S
O341        C362   1.290       .  A
O341       Eu351   2.441       .  S
O342        C357   1.297       .  A
O342       Eu348   2.500   1_455  S
O343        C360   1.289       .  A
O343       Eu349   2.453   1_455  S
O344        C359   1.289       .  A
O344       Eu349   2.449       .  S
O345        C358   1.290       .  A
O345       Eu348   2.440       .  S
O346        C355   1.298       .  A
O346       Eu352   2.497       .  S
O347        C356   1.296       .  A
O347       Eu352   2.495       .  S
Eu348       O366   2.375       .  S
Eu348       O354   2.352   1_655  S
Eu349       O353   2.337       .  S
Eu349       O364   2.343   1_655  S
Eu350       O364   2.353       .  S
Eu350       O354   2.346       .  S
Eu351       O353   2.352       .  S
Eu351       O366   2.374       .  S
Eu352       O353   2.349       .  S
Eu352       O364   2.349   1_655  S
Eu352       O366   2.375       .  S
Eu352       O354   2.364   1_655  S
C355       C1824   1.492       .  S
C356       C1776   1.486       .  S
C357        C723   1.507       .  S
C358        C672   1.502       .  S
C359        C696   1.486       .  S
C360        C747   1.471       .  S
C361        C792   1.477       .  S
C362        C768   1.470       .  S
H363        O364   0.968       .  S
H365        O366   0.960       .  S
C367        N368   1.363       .  A
C367        N372   1.370       .  A
C367       C1992   1.491       .  S
N368        C369   1.353       .  A
C369        N370   1.346       .  A
C369        C843   1.475       .  S
N370        C371   1.351       .  A
C371        N372   1.368       .  A
C371        C648   1.467       .  S
C373        N374   1.373       .  A
C373        N378   1.359       .  A
C373        C627   1.485       .  S
N374        C375   1.372       .  A
C375        N376   1.357       .  A
C375       C1968   1.486       .  S
N376        C377   1.350       .  A
C377        N378   1.350       .  A
C377        C819   1.480       .  S
C379        N380   1.358       .  A
C379        N384   1.374       .  A
C379        C603   1.488       .  S
N380        C381   1.353       .  A
C381        N382   1.348       .  A
C381        C795   1.476       .  S
N382        C383   1.352       .  A
C383        N384   1.373       .  A
C383       C2016   1.477       .  S
C385        N386   1.370       .  A
C385        N390   1.353       .  A
C385       C2043   1.480       .  S
N386        C387   1.371       .  A
C387        N388   1.357       .  A
C387        C576   1.480       .  S
N388        C389   1.354       .  A
C389        N390   1.353       .  A
C389        C771   1.484       .  S
C391        N392   1.367       .  A
C391        N396   1.356       .  A
C391        C744   1.473       .  S
N392        C393   1.368       .  A
C393        N394   1.358       .  A
C393       C1035   1.471       .  S
N394        C395   1.347       .  A
C395        N396   1.350       .  A
C395        C555   1.475       .  S
O397        C408   1.292       .  A
O397       Eu433   2.471       .  S
O398        C409   1.295       .  A
O398       Eu432   2.488       .  S
O399        C410   1.288       .  A
O399       Eu405   2.438       .  S
O400        C411   1.286       .  A
O400       Eu405   2.419       .  S
O401        C411   1.291       .  A
O401       Eu435   2.458       .  S
O402        C410   1.291       .  A
O402       Eu434   2.449       .  S
O403        C409   1.292       .  A
O403       Eu405   2.456   1_556  S
O404        C408   1.291       .  A
O404       Eu405   2.456       .  S
Eu405       O415   2.346       .  S
Eu405       O407   2.341       .  S
Eu405       O406   2.357   1_554  S
Eu405       O413   2.337   1_554  S
O406       Eu435   2.369   1_556  S
O406       Eu432   2.361       .  S
O407       Eu433   2.342       .  S
O407       Eu434   2.343       .  S
C408        C939   1.479       .  S
C409        C867   1.497       .  S
C410        C552   1.474       .  S
C411        C480   1.469       .  S
H412        O413   0.965       .  S
O413       Eu434   2.339   1_556  S
O413       Eu432   2.342       .  S
H414        O415   0.966       .  S
O415       Eu433   2.346       .  S
O415       Eu435   2.359       .  S
O416        C439   1.288       .  A
O416       Eu432   2.436       .  S
O417        C440   1.290       .  A
O417       Eu433   2.452       .  S
O418        C441   1.299       .  A
O418       Eu434   2.494   1_556  S
O419        C442   1.297       .  A
O419       Eu435   2.490   1_556  S
O420        C443   1.296       .  A
O420       Eu435   2.490       .  S
O421        C444   1.296       .  A
O421       Eu434   2.486       .  S
O422        C445   1.294       .  A
O422       Eu436   2.471       .  S
O423        C446   1.291       .  A
O423       Eu436   2.458       .  S
O424        C445   1.287       .  A
O424       Eu434   2.422       .  S
O425        C446   1.290       .  A
O425       Eu435   2.446       .  S
O426        C441   1.294       .  A
O426       Eu432   2.476       .  S
O427        C444   1.289       .  A
O427       Eu433   2.452       .  S
O428        C443   1.287       .  A
O428       Eu433   2.434       .  S
O429        C442   1.293       .  A
O429       Eu432   2.465       .  S
O430        C439   1.298       .  A
O430       Eu436   2.491   1_556  S
O431        C440   1.298       .  A
O431       Eu436   2.500       .  S
Eu432       O450   2.369       .  S
Eu432       O438   2.373       .  S
Eu433       O437   2.353       .  S
Eu433       O448   2.343       .  S
Eu434       O448   2.360       .  S
Eu434       O438   2.363   1_554  S
Eu435       O437   2.349       .  S
Eu435       O450   2.354   1_554  S
Eu436       O437   2.348       .  S
Eu436       O448   2.361       .  S
Eu436       O450   2.364   1_554  S
Eu436       O438   2.372   1_554  S
C439        C888   1.486       .  S
C440        C915   1.493       .  S
C441        C600   1.502       .  S
C442        C579   1.494       .  S
C443        C651   1.475       .  S
C444        C624   1.480       .  S
C445        C504   1.473       .  S
C446        C531   1.482       .  S
H447        O448   0.965       .  S
H449        O450   0.967       .  S
C451        N452   1.372       .  A
C451        N456   1.351       .  A
C451       C1011   1.479       .  S
N452        C453   1.373       .  A
C453        N454   1.356       .  A
C453        C675   1.481       .  S
N454        C455   1.353   1_556  A
C455        N456   1.351   1_554  A
C455        C528   1.483       .  S
C457        N458   1.350   1_556  A
C457        N462   1.372       .  A
C457        C987   1.474       .  S
N458        C459   1.346       .  A
C459        N460   1.353       .  A
C459        C507   1.476       .  S
N460        C461   1.360   1_554  A
C461        N462   1.374       .  A
C461        C720   1.489       .  S
C463        N464   1.350       .  A
C463        N468   1.376       .  A
C463        C699   1.474       .  S
N464        C465   1.342       .  A
C465        N466   1.349       .  A
C465        C483   1.472   1_556  S
N466        C467   1.359       .  A
C467        N468   1.377       .  A
C467        C963   1.502       .  S
C469        C470   1.399       .  A
C469        C474   1.405       .  A
C469        H485   1.084   1_554  S
C470        C471   1.403       .  A
C470        H486   1.084       .  S
C471        C481   1.405       .  A
C471        C472   1.415       .  A
C472        C478   1.407       .  A
C472        C473   1.405       .  A
C473        C475   1.413       .  A
C473        C474   1.409       .  A
C474        C482   1.399       .  A
C475        C484   1.395       .  A
C475        C476   1.400       .  A
C476        C477   1.392       .  A
C476        H487   1.084       .  S
C477        C478   1.401       .  A
C477        H488   1.083       .  S
C478        C479   1.387       .  A
C479        C480   1.405       .  A
C479        H489   1.084       .  S
C480        C481   1.404       .  A
C481        H490   1.084       .  S
C482        C483   1.409       .  A
C482        H491   1.084   1_554  S
C483        C484   1.402       .  A
C484        H492   1.084       .  S
C493        C494   1.396       .  A
C493        C498   1.402       .  A
C493        H509   1.084       .  S
C494        C495   1.403       .  A
C494        H510   1.084       .  S
C495        C505   1.394       .  A
C495        C496   1.408       .  A
C496        C502   1.414       .  A
C496        C497   1.407       .  A
C497        C499   1.408       .  A
C497        C498   1.413       .  A
C498        C506   1.400       .  A
C499        C508   1.397       .  A
C499        C500   1.404       .  A
C500        C501   1.397       .  A
C500        H511   1.084       .  S
C501        C502   1.402       .  A
C501        H512   1.084       .  S
C502        C503   1.402       .  A
C503        C504   1.403       .  A
C503        H513   1.084       .  S
C504        C505   1.409       .  A
C505        H514   1.084       .  S
C506        C507   1.404       .  A
C506        H515   1.084       .  S
C507        C508   1.409       .  A
C508        H516   1.084       .  S
C517        C518   1.400       .  A
C517        C522   1.405       .  A
C517        H533   1.083       .  S
C518        C519   1.403       .  A
C518        H534   1.084       .  S
C519        C529   1.400       .  A
C519        C520   1.410       .  A
C520        C526   1.413       .  A
C520        C521   1.407       .  A
C521        C523   1.408       .  A
C521        C522   1.413       .  A
C522        C530   1.405       .  A
C523        C532   1.395       .  A
C523        C524   1.403       .  A
C524        C525   1.396       .  A
C524        H535   1.084       .  S
C525        C526   1.401       .  A
C525        H536   1.084       .  S
C526        C527   1.400       .  A
C527        C528   1.406       .  A
C527        H537   1.085       .  S
C528        C529   1.409       .  A
C529        H538   1.085       .  S
C530        C531   1.409       .  A
C530        H539   1.084       .  S
C531        C532   1.408       .  A
C532        H540   1.084       .  S
C541        C542   1.401       .  A
C541        C546   1.405   1_554  A
C541        H557   1.084       .  S
C542        C543   1.405       .  A
C542        H558   1.084       .  S
C543        C553   1.403       .  A
C543        C544   1.411   1_554  A
C544        C550   1.411       .  A
C544        C545   1.408       .  A
C545        C547   1.411       .  A
C545        C546   1.411       .  A
C546        C554   1.404       .  A
C547        C556   1.394       .  A
C547        C548   1.401       .  A
C548        C549   1.393       .  A
C548        H559   1.084       .  S
C549        C550   1.401       .  A
C549        H560   1.084       .  S
C550        C551   1.394       .  A
C551        C552   1.404   1_556  A
C551        H561   1.084       .  S
C552        C553   1.409       .  A
C553        H562   1.084       .  S
C554        C555   1.409       .  A
C554        H563   1.084       .  S
C555        C556   1.403       .  A
C556        H564   1.084       .  S
C565        C566   1.402       .  A
C565        C570   1.406       .  A
C565        H581   1.084       .  S
C566        C567   1.404       .  A
C566        H582   1.083       .  S
C567        C577   1.411       .  A
C567        C568   1.415       .  A
C568        C574   1.410       .  A
C568        C569   1.417       .  A
C569        C571   1.413       .  A
C569        C570   1.410       .  A
C570        C578   1.408       .  A
C571        C580   1.408       .  A
C571        C572   1.404       .  A
C572        C573   1.400       .  A
C572        H583   1.084       .  S
C573        C574   1.405       .  A
C573        H584   1.084       .  S
C574        C575   1.404       .  A
C575        C576   1.409       .  A
C575        H585   1.085       .  S
C576        C577   1.405       .  A
C577        H586   1.084       .  S
C578        C579   1.413       .  A
C578        H587   1.084       .  S
C579        C580   1.408       .  A
C580        H588   1.084       .  S
C589        C590   1.398       .  A
C589        C594   1.403       .  A
C589        H605   1.083       .  S
C590        C591   1.403       .  A
C590        H606   1.084       .  S
C591        C601   1.405       .  A
C591        C592   1.412       .  A
C592        C598   1.411       .  A
C592        C593   1.420       .  A
C593        C595   1.414       .  A
C593        C594   1.410       .  A
C594        C602   1.403       .  A
C595        C604   1.419       .  A
C595        C596   1.407       .  A
C596        C597   1.408       .  A
C596        H607   1.083       .  S
C597        C598   1.408       .  A
C597        H608   1.083       .  S
C598        C599   1.417       .  A
C599        C600   1.417       .  A
C599        H609   1.084       .  S
C600        C601   1.408       .  A
C601        H610   1.084       .  S
C602        C603   1.407       .  A
C602        H611   1.085       .  S
C603        C604   1.411       .  A
C604        H612   1.084       .  S
C613        C614   1.404       .  A
C613        C618   1.405       .  A
C613        H629   1.083       .  S
C614        C615   1.406       .  A
C614        H630   1.084       .  S
C615        C625   1.409       .  A
C615        C616   1.411       .  A
C616        C622   1.414       .  A
C616        C617   1.416       .  A
C617        C619   1.409       .  A
C617        C618   1.414       .  A
C618        C626   1.414       .  A
C619        C628   1.400       .  A
C619        C620   1.404       .  A
C620        C621   1.398       .  A
C620        H631   1.084       .  S
C621        C622   1.402       .  A
C621        H632   1.084       .  S
C622        C623   1.405       .  A
C623        C624   1.403       .  A
C623        H633   1.085       .  S
C624        C625   1.409       .  A
C625        H634   1.084       .  S
C626        C627   1.408       .  A
C626        H635   1.084       .  S
C627        C628   1.408       .  A
C628        H636   1.085       .  S
C637        C638   1.399       .  A
C637        C642   1.404       .  A
C637        H653   1.084       .  S
C638        C639   1.404       .  A
C638        H654   1.084       .  S
C639        C649   1.405       .  A
C639        C640   1.412       .  A
C640        C646   1.411       .  A
C640        C641   1.413       .  A
C641        C643   1.414       .  A
C641        C642   1.411       .  A
C642        C650   1.401       .  A
C643        C652   1.407       .  A
C643        C644   1.403       .  A
C644        C645   1.400       .  A
C644        H655   1.084       .  S
C645        C646   1.404       .  A
C645        H656   1.083       .  S
C646        C647   1.404       .  A
C647        C648   1.406       .  A
C647        H657   1.085       .  S
C648        C649   1.406       .  A
C649        H658   1.085       .  S
C650        C651   1.406       .  A
C650        H659   1.085       .  S
C651        C652   1.405       .  A
C652        H660   1.085       .  S
C661        C662   1.397       .  A
C661        C666   1.402       .  A
C661        H677   1.084       .  S
C662        C663   1.403       .  A
C662        H678   1.084       .  S
C663        C673   1.399       .  A
C663        C664   1.408       .  A
C664        C670   1.414       .  A
C664        C665   1.419       .  A
C665        C667   1.411       .  A
C665        C666   1.413       .  A
C666        C674   1.404       .  A
C667        C676   1.415       .  A
C667        C668   1.407       .  A
C668        C669   1.407       .  A
C668        H679   1.083       .  S
C669        C670   1.407       .  A
C669        H680   1.083       .  S
C670        C671   1.419       .  A
C671        C672   1.413       .  A
C671        H681   1.084       .  S
C672        C673   1.413       .  A
C673        H682   1.084       .  S
C674        C675   1.404       .  A
C674        H683   1.085       .  S
C675        C676   1.412       .  A
C676        H684   1.084       .  S
C685        C686   1.403       .  A
C685        C690   1.406       .  A
C685        H701   1.084       .  S
C686        C687   1.405       .  A
C686        H702   1.084       .  S
C687        C697   1.412       .  A
C687        C688   1.413       .  A
C688        C694   1.411       .  A
C688        C689   1.418       .  A
C689        C691   1.412       .  A
C689        C690   1.410       .  A
C690        C698   1.409       .  A
C691        C700   1.408       .  A
C691        C692   1.404   1_556  A
C692        C693   1.400       .  A
C692        H703   1.083       .  S
C693        C694   1.404   1_554  A
C693        H704   1.084       .  S
C694        C695   1.405       .  A
C695        C696   1.407       .  A
C695        H705   1.085   1_556  S
C696        C697   1.408       .  A
C697        H706   1.082       .  S
C698        C699   1.411       .  A
C698        H707   1.085       .  S
C699        C700   1.407       .  A
C700        H708   1.085   1_556  S
C709        C710   1.400       .  A
C709        C714   1.405       .  A
C709        H725   1.084       .  S
C710        C711   1.404       .  A
C710        H726   1.084       .  S
C711        C721   1.402       .  A
C711        C712   1.409       .  A
C712        C718   1.415       .  A
C712        C713   1.420       .  A
C713        C715   1.411       .  A
C713        C714   1.412       .  A
C714        C722   1.409       .  A
C715        C724   1.415       .  A
C715        C716   1.407       .  A
C716        C717   1.405       .  A
C716        H727   1.083       .  S
C717        C718   1.405       .  A
C717        H728   1.083       .  S
C718        C719   1.417       .  A
C719        C720   1.409       .  A
C719        H729   1.084       .  S
C720        C721   1.409       .  A
C721        H730   1.085       .  S
C722        C723   1.413       .  A
C722        H731   1.084       .  S
C723        C724   1.414       .  A
C724        H732   1.083       .  S
C733        C734   1.395       .  A
C733        C738   1.402       .  A
C733        H749   1.084       .  S
C734        C735   1.403       .  A
C734        H750   1.084       .  S
C735        C745   1.396       .  A
C735        C736   1.409       .  A
C736        C742   1.415       .  A
C736        C737   1.411       .  A
C737        C739   1.412       .  A
C737        C738   1.413       .  A
C738        C746   1.398       .  A
C739        C748   1.406       .  A
C739        C740   1.405   1_556  A
C740        C741   1.402       .  A
C740        H751   1.084       .  S
C741        C742   1.405   1_554  A
C741        H752   1.083       .  S
C742        C743   1.411       .  A
C743        C744   1.405       .  A
C743        H753   1.084   1_556  S
C744        C745   1.405       .  A
C745        H754   1.085       .  S
C746        C747   1.403       .  A
C746        H755   1.085       .  S
C747        C748   1.407       .  A
C748        H756   1.084   1_556  S
C757        C758   1.397       .  A
C757        C762   1.403       .  A
C757        H773   1.083       .  S
C758        C759   1.403       .  A
C758        H774   1.084       .  S
C759        C769   1.395       .  A
C759        C760   1.410       .  A
C760        C766   1.412       .  A
C760        C761   1.404       .  A
C761        C763   1.411       .  A
C761        C762   1.413       .  A
C762        C770   1.401       .  A
C763        C772   1.397       .  A
C763        C764   1.403       .  A
C764        C765   1.396       .  A
C764        H775   1.084       .  S
C765        C766   1.403       .  A
C765        H776   1.084       .  S
C766        C767   1.397       .  A
C767        C768   1.405       .  A
C767        H777   1.084       .  S
C768        C769   1.406       .  A
C769        H778   1.084       .  S
C770        C771   1.408       .  A
C770        H779   1.085       .  S
C771        C772   1.407       .  A
C772        H780   1.085       .  S
C781        C782   1.401       .  A
C781        C786   1.405       .  A
C781        H797   1.083       .  S
C782        C783   1.403       .  A
C782        H798   1.084       .  S
C783        C793   1.408       .  A
C783        C784   1.415       .  A
C784        C790   1.405       .  A
C784        C785   1.406       .  A
C785        C787   1.413       .  A
C785        C786   1.408       .  A
C786        C794   1.402       .  A
C787        C796   1.395       .  A
C787        C788   1.400       .  A
C788        C789   1.392       .  A
C788        H799   1.084       .  S
C789        C790   1.402       .  A
C789        H800   1.084       .  S
C790        C791   1.386       .  A
C791        C792   1.410       .  A
C791        H801   1.084       .  S
C792        C793   1.406       .  A
C793        H802   1.084       .  S
C794        C795   1.410       .  A
C794        H803   1.084       .  S
C795        C796   1.403       .  A
C796        H804   1.084       .  S
C805        C806   1.397       .  A
C805        C810   1.403       .  A
C805        H821   1.084       .  S
C806        C807   1.402       .  A
C806        H822   1.084       .  S
C807        C817   1.400       .  A
C807        C808   1.412       .  A
C808        C814   1.410       .  A
C808        C809   1.409       .  A
C809        C811   1.412       .  A
C809        C810   1.410       .  A
C810        C818   1.399       .  A
C811        C820   1.401       .  A
C811        C812   1.403       .  A
C812        C813   1.397       .  A
C812        H823   1.084       .  S
C813        C814   1.403       .  A
C813        H824   1.084       .  S
C814        C815   1.397       .  A
C815        C816   1.408       .  A
C815        H825   1.084       .  S
C816        C817   1.406       .  A
C817        H826   1.084       .  S
C818        C819   1.408       .  A
C818        H827   1.084       .  S
C819        C820   1.408       .  A
C820        H828   1.084       .  S
C829        C830   1.397       .  A
C829        C834   1.402       .  A
C829        H845   1.084       .  S
C830        C831   1.404       .  A
C830        H846   1.084       .  S
C831        C841   1.396       .  A
C831        C832   1.408       .  A
C832        C838   1.415       .  A
C832        C833   1.410       .  A
C833        C835   1.408       .  A
C833        C834   1.414       .  A
C834        C842   1.403       .  A
C835        C844   1.399       .  A
C835        C836   1.404       .  A
C836        C837   1.399       .  A
C836        H847   1.084       .  S
C837        C838   1.403       .  A
C837        H848   1.083       .  S
C838        C839   1.407       .  A
C839        C840   1.404       .  A
C839        H849   1.084       .  S
C840        C841   1.409       .  A
C841        H850   1.085       .  S
C842        C843   1.403       .  A
C842        H851   1.084       .  S
C843        C844   1.409       .  A
C844        H852   1.084       .  S
C853        C854   1.397       .  A
C853        C858   1.403       .  A
C853        H869   1.084       .  S
C854        C855   1.403       .  A
C854        H870   1.084       .  S
C855        C865   1.401       .  A
C855        C856   1.410       .  A
C856        C862   1.413       .  A
C856        C857   1.417       .  A
C857        C859   1.412       .  A
C857        C858   1.410       .  A
C858        C866   1.400       .  A
C859        C868   1.415       .  A
C859        C860   1.406       .  A
C860        C861   1.405       .  A
C860        H871   1.083       .  S
C861        C862   1.405       .  A
C861        H872   1.083       .  S
C862        C863   1.414       .  A
C863        C864   1.407       .  A
C863        H873   1.084       .  S
C864        C865   1.409       .  A
C865        H874   1.085       .  S
C866        C867   1.410       .  A
C866        H875   1.084       .  S
C867        C868   1.413       .  A
C868        H876   1.084       .  S
C877        C878   1.401       .  A
C877        C882   1.404       .  A
C877        H893   1.083       .  S
C878        C879   1.405       .  A
C878        H894   1.084       .  S
C879        C889   1.404       .  A
C879        C880   1.409       .  A
C880        C886   1.414       .  A
C880        C881   1.414       .  A
C881        C883   1.409       .  A
C881        C882   1.415       .  A
C882        C890   1.411       .  A
C883        C892   1.400       .  A
C883        C884   1.404       .  A
C884        C885   1.398       .  A
C884        H895   1.084       .  S
C885        C886   1.402       .  A
C885        H896   1.084       .  S
C886        C887   1.405       .  A
C887        C888   1.405       .  A
C887        H897   1.084       .  S
C888        C889   1.413       .  A
C889        H898   1.084       .  S
C890        C891   1.405       .  A
C890        H899   1.084       .  S
C891        C892   1.407       .  A
C892        H900   1.085       .  S
C901        C902   1.402       .  A
C901        C906   1.406       .  A
C901        H917   1.083       .  S
C902        C903   1.404       .  A
C902        H918   1.083       .  S
C903        C913   1.411       .  A
C903        C904   1.414       .  A
C904        C910   1.409       .  A
C904        C905   1.417       .  A
C905        C907   1.413       .  A
C905        C906   1.410       .  A
C906        C914   1.408       .  A
C907        C916   1.409       .  A
C907        C908   1.404       .  A
C908        C909   1.401       .  A
C908        H919   1.084       .  S
C909        C910   1.405       .  A
C909        H920   1.084       .  S
C910        C911   1.404       .  A
C911        C912   1.410       .  A
C911        H921   1.085       .  S
C912        C913   1.406       .  A
C913        H922   1.084       .  S
C914        C915   1.412       .  A
C914        H923   1.084       .  S
C915        C916   1.409       .  A
C916        H924   1.084       .  S
C925        C926   1.404       .  A
C925        C930   1.406       .  A
C925        H941   1.083       .  S
C926        C927   1.405       .  A
C926        H942   1.083       .  S
C927        C937   1.411       .  A
C927        C928   1.414       .  A
C928        C934   1.411       .  A
C928        C929   1.413       .  A
C929        C931   1.411       .  A
C929        C930   1.412       .  A
C930        C938   1.411       .  A
C931        C940   1.398       .  A
C931        C932   1.401       .  A
C932        C933   1.395       .  A
C932        H943   1.082       .  S
C933        C934   1.402       .  A
C933        H944   1.084       .  S
C934        C935   1.396       .  A
C935        C936   1.403       .  A
C935        H945   1.085       .  S
C936        C937   1.406       .  A
C937        H946   1.084       .  S
C938        C939   1.409       .  A
C938        H947   1.084       .  S
C939        C940   1.403       .  A
C940        H948   1.083       .  S
C949        C950   1.408       .  A
C949        C954   1.407       .  A
C949        H965   1.083       .  S
C950        C951   1.408       .  A
C950        H966   1.083       .  S
C951        C961   1.417       .  A
C951        C952   1.411       .  A
C952        C958   1.413       .  A
C952        C953   1.419       .  A
C953        C955   1.407   1_556  A
C953        C954   1.415       .  A
C954        C962   1.421       .  A
C955        C964   1.398       .  A
C955        C956   1.404       .  A
C956        C957   1.396       .  A
C956        H967   1.084       .  S
C957        C958   1.402   1_554  A
C957        H968   1.084       .  S
C958        C959   1.403       .  A
C959        C960   1.405       .  A
C959        H969   1.085   1_556  S
C960        C961   1.414       .  A
C961        H970   1.084       .  S
C962        C963   1.413       .  A
C962        H971   1.083       .  S
C963        C964   1.414   1_556  A
C964        H972   1.084       .  S
C973        C974   1.400       .  A
C973        C978   1.404   1_554  A
C973        H989   1.084       .  S
C974        C975   1.404   1_554  A
C974        H990   1.084       .  S
C975        C985   1.404       .  A
C975        C976   1.411       .  A
C976        C982   1.413       .  A
C976        C977   1.416       .  A
C977        C979   1.411       .  A
C977        C978   1.412       .  A
C978        C986   1.406       .  A
C979        C988   1.409       .  A
C979        C980   1.406       .  A
C980        C981   1.402       .  A
C980        H991   1.083       .  S
C981        C982   1.404       .  A
C981        H992   1.083       .  S
C982        C983   1.409       .  A
C983        C984   1.406       .  A
C983        H993   1.084       .  S
C984        C985   1.407       .  A
C985        H994   1.085   1_556  S
C986        C987   1.407       .  A
C986        H995   1.085   1_556  S
C987        C988   1.409       .  A
C988        H996   1.085       .  S
C997        C998   1.400       .  A
C997       C1002   1.404       .  A
C997       H1013   1.083       .  S
C998        C999   1.405       .  A
C998       H1014   1.084       .  S
C999       C1009   1.402       .  A
C999       C1000   1.408       .  A
C1000      C1006   1.415       .  A
C1000      C1001   1.417       .  A
C1001      C1003   1.409       .  A
C1001      C1002   1.415       .  A
C1002      C1010   1.411       .  A
C1003      C1012   1.407       .  A
C1003      C1004   1.406       .  A
C1004      C1005   1.402       .  A
C1004      H1015   1.083       .  S
C1005      C1006   1.404       .  A
C1005      H1016   1.084       .  S
C1006      C1007   1.412       .  A
C1007      C1008   1.408       .  A
C1007      H1017   1.084       .  S
C1008      C1009   1.415       .  A
C1009      H1018   1.084       .  S
C1010      C1011   1.405       .  A
C1010      H1019   1.084       .  S
C1011      C1012   1.411       .  A
C1012      H1020   1.085       .  S
C1021      C1022   1.404       .  A
C1021      C1026   1.405       .  A
C1021      H1037   1.083   1_556  S
C1022      C1023   1.406       .  A
C1022      H1038   1.083   1_556  S
C1023      C1033   1.407       .  A
C1023      C1024   1.410       .  A
C1024      C1030   1.412       .  A
C1024      C1025   1.412       .  A
C1025      C1027   1.409       .  A
C1025      C1026   1.415       .  A
C1026      C1034   1.412       .  A
C1027      C1036   1.392       .  A
C1027      C1028   1.401       .  A
C1028      C1029   1.393       .  A
C1028      H1039   1.084       .  S
C1029      C1030   1.400       .  A
C1029      H1040   1.078       .  S
C1030      C1031   1.400       .  A
C1031      C1032   1.403       .  A
C1031      H1041   1.084       .  S
C1032      C1033   1.410       .  A
C1033      H1042   1.084   1_556  S
C1034      C1035   1.406       .  A
C1034      H1043   1.084       .  S
C1035      C1036   1.404       .  A
C1036      H1044   1.086       .  S
C1045      C1046   1.392       .  A
C1045      C1050   1.400       .  A
C1045      H1061   1.084       .  S
C1046      C1047   1.402       .  A
C1046      H1062   1.084       .  S
C1047      C1057   1.392       .  A
C1047      C1048   1.407       .  A
C1048      C1054   1.413       .  A
C1048      C1049   1.408       .  A
C1049      C1051   1.410       .  A
C1049      C1050   1.412       .  A
C1050      C1058   1.394       .  A
C1051      C1060   1.402       .  A
C1051      C1052   1.405       .  A
C1052      C1053   1.401       .  A
C1052      H1063   1.084       .  S
C1053      C1054   1.404       .  A
C1053      H1064   1.083       .  S
C1054      C1055   1.407       .  A
C1055      C1056   1.407       .  A
C1055      H1065   1.084       .  S
C1056      C1057   1.409       .  A
C1057      H1066   1.084       .  S
C1058      C1059   1.403       .  A
C1058      H1067   1.084       .  S
C1059      C1060   1.410       .  A
C1060      H1068   1.084       .  S
C1069      C1070   1.396       .  A
C1069      C1074   1.402       .  A
C1069      H1085   1.084       .  S
C1070      C1071   1.403       .  A
C1070      H1086   1.084       .  S
C1071      C1081   1.396       .  A
C1071      C1072   1.410       .  A
C1072      C1078   1.411       .  A
C1072      C1073   1.405       .  A
C1073      C1075   1.412       .  A
C1073      C1074   1.413       .  A
C1074      C1082   1.400       .  A
C1075      C1084   1.401       .  A
C1075      C1076   1.403       .  A
C1076      C1077   1.398       .  A
C1076      H1087   1.084       .  S
C1077      C1078   1.404       .  A
C1077      H1088   1.084       .  S
C1078      C1079   1.399       .  A
C1079      C1080   1.408       .  A
C1079      H1089   1.084       .  S
C1080      C1081   1.407       .  A
C1081      H1090   1.084       .  S
C1082      C1083   1.407       .  A
C1082      H1091   1.085       .  S
C1083      C1084   1.409       .  A
C1084      H1092   1.085       .  S
C1093      C1094   1.393       .  A
C1093      C1098   1.400       .  A
C1093      H1109   1.084       .  S
C1094      C1095   1.403       .  A
C1094      H1110   1.084       .  S
C1095      C1105   1.387       .  A
C1095      C1096   1.403       .  A
C1096      C1102   1.417       .  A
C1096      C1097   1.410       .  A
C1097      C1099   1.406       .  A
C1097      C1098   1.416       .  A
C1098      C1106   1.400       .  A
C1099      C1108   1.402       .  A
C1099      C1100   1.407       .  A
C1100      C1101   1.403       .  A
C1100      H1111   1.084       .  S
C1101      C1102   1.404       .  A
C1101      H1112   1.083       .  S
C1102      C1103   1.415       .  A
C1103      C1104   1.408       .  A
C1103      H1113   1.084       .  S
C1104      C1105   1.413       .  A
C1105      H1114   1.083       .  S
C1106      C1107   1.402       .  A
C1106      H1115   1.084       .  S
C1107      C1108   1.415       .  A
C1108      H1116   1.084       .  S
C1117      C1118   1.396       .  A
C1117      C1122   1.402       .  A
C1117      H1133   1.084       .  S
C1118      C1119   1.403       .  A
C1118      H1134   1.084       .  S
C1119      C1129   1.395       .  A
C1119      C1120   1.409       .  A
C1120      C1126   1.413       .  A
C1120      C1121   1.407       .  A
C1121      C1123   1.409       .  A
C1121      C1122   1.413       .  A
C1122      C1130   1.400       .  A
C1123      C1132   1.396       .  A
C1123      C1124   1.403       .  A
C1124      C1125   1.397       .  A
C1124      H1135   1.084       .  S
C1125      C1126   1.402       .  A
C1125      H1136   1.084       .  S
C1126      C1127   1.401       .  A
C1127      C1128   1.406       .  A
C1127      H1137   1.084       .  S
C1128      C1129   1.407       .  A
C1129      H1138   1.084       .  S
C1130      C1131   1.405       .  A
C1130      H1139   1.084       .  S
C1131      C1132   1.407       .  A
C1132      H1140   1.084       .  S
C1141      C1142   1.399       .  A
C1141      C1146   1.404       .  A
C1141      H1157   1.083       .  S
C1142      C1143   1.404       .  A
C1142      H1158   1.084       .  S
C1143      C1153   1.399       .  A
C1143      C1144   1.410       .  A
C1144      C1150   1.415       .  A
C1144      C1145   1.413       .  A
C1145      C1147   1.410       .  A
C1145      C1146   1.413       .  A
C1146      C1154   1.405       .  A
C1147      C1156   1.404       .  A
C1147      C1148   1.404       .  A
C1148      C1149   1.400       .  A
C1148      H1159   1.083   1_565  S
C1149      C1150   1.403       .  A
C1149      H1160   1.083   1_565  S
C1150      C1151   1.407       .  A
C1151      C1152   1.402       .  A
C1151      H1161   1.084   1_565  S
C1152      C1153   1.406       .  A
C1153      H1162   1.085       .  S
C1154      C1155   1.407       .  A
C1154      H1163   1.083       .  S
C1155      C1156   1.408       .  A
C1156      H1164   1.084       .  S
C1165      C1166   1.402       .  A
C1165      C1170   1.405       .  A
C1165      H1181   1.084       .  S
C1166      C1167   1.404       .  A
C1166      H1182   1.083       .  S
C1167      C1177   1.413       .  A
C1167      C1168   1.414       .  A
C1168      C1174   1.410       .  A
C1168      C1169   1.420       .  A
C1169      C1171   1.413       .  A
C1169      C1170   1.409       .  A
C1170      C1178   1.407       .  A
C1171      C1180   1.412       .  A
C1171      C1172   1.405       .  A
C1172      C1173   1.403       .  A
C1172      H1183   1.084       .  S
C1173      C1174   1.406       .  A
C1173      H1184   1.083       .  S
C1174      C1175   1.410       .  A
C1175      C1176   1.413       .  A
C1175      H1185   1.085       .  S
C1176      C1177   1.407       .  A
C1177      H1186   1.084       .  S
C1178      C1179   1.414       .  A
C1178      H1187   1.084       .  S
C1179      C1180   1.411       .  A
C1180      H1188   1.084       .  S
C1189      C1190   1.406       .  A
C1189      C1194   1.406       .  A
C1189      H1205   1.084       .  S
C1190      C1191   1.407       .  A
C1190      H1206   1.084       .  S
C1191      C1201   1.413       .  A
C1191      C1192   1.411       .  A
C1192      C1198   1.412       .  A
C1192      C1193   1.418       .  A
C1193      C1195   1.411       .  A
C1193      C1194   1.414       .  A
C1194      C1202   1.415       .  A
C1195      C1204   1.402       .  A
C1195      C1196   1.402   1_565  A
C1196      C1197   1.398       .  A
C1196      H1207   1.084       .  S
C1197      C1198   1.403   1_545  A
C1197      H1208   1.083       .  S
C1198      C1199   1.406       .  A
C1199      C1200   1.406       .  A
C1199      H1209   1.085   1_565  S
C1200      C1201   1.412       .  A
C1201      H1210   1.084       .  S
C1202      C1203   1.411       .  A
C1202      H1211   1.084       .  S
C1203      C1204   1.403       .  A
C1204      H1212   1.085   1_565  S
C1213      C1214   1.395       .  A
C1213      C1218   1.402       .  A
C1213      H1229   1.083       .  S
C1214      C1215   1.403       .  A
C1214      H1230   1.084       .  S
C1215      C1225   1.394       .  A
C1215      C1216   1.409       .  A
C1216      C1222   1.415       .  A
C1216      C1217   1.412       .  A
C1217      C1219   1.411       .  A
C1217      C1218   1.412       .  A
C1218      C1226   1.399       .  A
C1219      C1228   1.407       .  A
C1219      C1220   1.405       .  A
C1220      C1221   1.403       .  A
C1220      H1231   1.083       .  S
C1221      C1222   1.404       .  A
C1221      H1232   1.083       .  S
C1222      C1223   1.411       .  A
C1223      C1224   1.404       .  A
C1223      H1233   1.084       .  S
C1224      C1225   1.406       .  A
C1225      H1234   1.085       .  S
C1226      C1227   1.403       .  A
C1226      H1235   1.082       .  S
C1227      C1228   1.409       .  A
C1228      H1236   1.084       .  S
C1237      C1238   1.406       .  A
C1237      C1242   1.407       .  A
C1237      H1253   1.084       .  S
C1238      C1239   1.407       .  A
C1238      H1254   1.083       .  S
C1239      C1249   1.416       .  A
C1239      C1240   1.414       .  A
C1240      C1246   1.411       .  A
C1240      C1241   1.419       .  A
C1241      C1243   1.412       .  A
C1241      C1242   1.411       .  A
C1242      C1250   1.414       .  A
C1243      C1252   1.404       .  A
C1243      C1244   1.402       .  A
C1244      C1245   1.398       .  A
C1244      H1255   1.084       .  S
C1245      C1246   1.403       .  A
C1245      H1256   1.083       .  S
C1246      C1247   1.403       .  A
C1247      C1248   1.406       .  A
C1247      H1257   1.085       .  S
C1248      C1249   1.410       .  A
C1249      H1258   1.084       .  S
C1250      C1251   1.415       .  A
C1250      H1259   1.084       .  S
C1251      C1252   1.406       .  A
C1252      H1260   1.084       .  S
C1261      C1262   1.399       .  A
C1261      C1266   1.404       .  A
C1261      H1277   1.084       .  S
C1262      C1263   1.403       .  A
C1262      H1278   1.084       .  S
C1263      C1273   1.403       .  A
C1263      C1264   1.412       .  A
C1264      C1270   1.413       .  A
C1264      C1265   1.414       .  A
C1265      C1267   1.411       .  A
C1265      C1266   1.412       .  A
C1266      C1274   1.405       .  A
C1267      C1276   1.407       .  A
C1267      C1268   1.405       .  A
C1268      C1269   1.401       .  A
C1268      H1279   1.083       .  S
C1269      C1270   1.404       .  A
C1269      H1280   1.084       .  S
C1270      C1271   1.407       .  A
C1271      C1272   1.406       .  A
C1271      H1281   1.084       .  S
C1272      C1273   1.405       .  A
C1273      H1282   1.085       .  S
C1274      C1275   1.405       .  A
C1274      H1283   1.085       .  S
C1275      C1276   1.408       .  A
C1276      H1284   1.085       .  S
C1285      C1286   1.398       .  A
C1285      C1290   1.402       .  A
C1285      H1301   1.084       .  S
C1286      C1287   1.405       .  A
C1286      H1302   1.084       .  S
C1287      C1297   1.400       .  A
C1287      C1288   1.407       .  A
C1288      C1294   1.415       .  A
C1288      C1289   1.417       .  A
C1289      C1291   1.409       .  A
C1289      C1290   1.415       .  A
C1290      C1298   1.407       .  A
C1291      C1300   1.408       .  A
C1291      C1292   1.406       .  A
C1292      C1293   1.404       .  A
C1292      H1303   1.084       .  S
C1293      C1294   1.406       .  A
C1293      H1304   1.083       .  S
C1294      C1295   1.417       .  A
C1295      C1296   1.413       .  A
C1295      H1305   1.084       .  S
C1296      C1297   1.414       .  A
C1297      H1306   1.084       .  S
C1298      C1299   1.402       .  A
C1298      H1307   1.084       .  S
C1299      C1300   1.409       .  A
C1300      H1308   1.085       .  S
C1309      C1310   1.397       .  A
C1309      C1314   1.402       .  A
C1309      H1325   1.084       .  S
C1310      C1311   1.403       .  A
C1310      H1326   1.083       .  S
C1311      C1321   1.401       .  A
C1311      C1312   1.411       .  A
C1312      C1318   1.410       .  A
C1312      C1313   1.409       .  A
C1313      C1315   1.411       .  A
C1313      C1314   1.411       .  A
C1314      C1322   1.398       .  A
C1315      C1324   1.401       .  A
C1315      C1316   1.403       .  A
C1316      C1317   1.398       .  A
C1316      H1327   1.084       .  S
C1317      C1318   1.404       .  A
C1317      H1328   1.084       .  S
C1318      C1319   1.401       .  A
C1319      C1320   1.409       .  A
C1319      H1329   1.084       .  S
C1320      C1321   1.407       .  A
C1321      H1330   1.084       .  S
C1322      C1323   1.405       .  A
C1322      H1331   1.084       .  S
C1323      C1324   1.408       .  A
C1324      H1332   1.084       .  S
C1333      C1334   1.397       .  A
C1333      C1338   1.403       .  A
C1333      H1349   1.084       .  S
C1334      C1335   1.403       .  A
C1334      H1350   1.084       .  S
C1335      C1345   1.401       .  A
C1335      C1336   1.412       .  A
C1336      C1342   1.412       .  A
C1336      C1337   1.405       .  A
C1337      C1339   1.411       .  A
C1337      C1338   1.411       .  A
C1338      C1346   1.397       .  A
C1339      C1348   1.397       .  A
C1339      C1340   1.403       .  A
C1340      C1341   1.396       .  A
C1340      H1351   1.084       .  S
C1341      C1342   1.402       .  A
C1341      H1352   1.084       .  S
C1342      C1343   1.399       .  A
C1343      C1344   1.406       .  A
C1343      H1353   1.085       .  S
C1344      C1345   1.409       .  A
C1345      H1354   1.085       .  S
C1346      C1347   1.407       .  A
C1346      H1355   1.084       .  S
C1347      C1348   1.406       .  A
C1348      H1356   1.084       .  S
C1357      C1358   1.394       .  A
C1357      C1362   1.402       .  A
C1357      H1373   1.084       .  S
C1358      C1359   1.402       .  A
C1358      H1374   1.084       .  S
C1359      C1369   1.392       .  A
C1359      C1360   1.409       .  A
C1360      C1366   1.413       .  A
C1360      C1361   1.405       .  A
C1361      C1363   1.410       .  A
C1361      C1362   1.412       .  A
C1362      C1370   1.396       .  A
C1363      C1372   1.398       .  A
C1363      C1364   1.404       .  A
C1364      C1365   1.397       .  A
C1364      H1375   1.084       .  S
C1365      C1366   1.402       .  A
C1365      H1376   1.084       .  S
C1366      C1367   1.399       .  A
C1367      C1368   1.403       .  A
C1367      H1377   1.084       .  S
C1368      C1369   1.406       .  A
C1369      H1378   1.085       .  S
C1370      C1371   1.404       .  A
C1370      H1379   1.084       .  S
C1371      C1372   1.409       .  A
C1372      H1380   1.084       .  S
C1381      C1382   1.406       .  A
C1381      C1386   1.407       .  A
C1381      H1397   1.083       .  S
C1382      C1383   1.406       .  A
C1382      H1398   1.083       .  S
C1383      C1393   1.417       .  A
C1383      C1384   1.415       .  A
C1384      C1390   1.409       .  A
C1384      C1385   1.418       .  A
C1385      C1387   1.412       .  A
C1385      C1386   1.410       .  A
C1386      C1394   1.414       .  A
C1387      C1396   1.405       .  A
C1387      C1388   1.403       .  A
C1388      C1389   1.398       .  A
C1388      H1399   1.084       .  S
C1389      C1390   1.403       .  A
C1389      H1400   1.084       .  S
C1390      C1391   1.400       .  A
C1391      C1392   1.408       .  A
C1391      H1401   1.085       .  S
C1392      C1393   1.409       .  A
C1393      H1402   1.084       .  S
C1394      C1395   1.414       .  A
C1394      H1403   1.084       .  S
C1395      C1396   1.410       .  A
C1396      H1404   1.084       .  S
C1405      C1406   1.398       .  A
C1405      C1410   1.405       .  A
C1405      H1421   1.084       .  S
C1406      C1407   1.402   1_565  A
C1406      H1422   1.084       .  S
C1407      C1417   1.402       .  A
C1407      C1408   1.415       .  A
C1408      C1414   1.407       .  A
C1408      C1409   1.405       .  A
C1409      C1411   1.414       .  A
C1409      C1410   1.408   1_545  A
C1410      C1418   1.396       .  A
C1411      C1420   1.397   1_545  A
C1411      C1412   1.401       .  A
C1412      C1413   1.393       .  A
C1412      H1423   1.084       .  S
C1413      C1414   1.402       .  A
C1413      H1424   1.083       .  S
C1414      C1415   1.388       .  A
C1415      C1416   1.405       .  A
C1415      H1425   1.083       .  S
C1416      C1417   1.402       .  A
C1417      H1426   1.084       .  S
C1418      C1419   1.410       .  A
C1418      H1427   1.084       .  S
C1419      C1420   1.401       .  A
C1420      H1428   1.084   1_565  S
C1429      C1430   1.401       .  A
C1429      C1434   1.405       .  A
C1429      H1445   1.084       .  S
C1430      C1431   1.405       .  A
C1430      H1446   1.084       .  S
C1431      C1441   1.407       .  A
C1431      C1432   1.411       .  A
C1432      C1438   1.413       .  A
C1432      C1433   1.418       .  A
C1433      C1435   1.412       .  A
C1433      C1434   1.411       .  A
C1434      C1442   1.407       .  A
C1435      C1444   1.410       .  A
C1435      C1436   1.405       .  A
C1436      C1437   1.402       .  A
C1436      H1447   1.083       .  S
C1437      C1438   1.404       .  A
C1437      H1448   1.083       .  S
C1438      C1439   1.411       .  A
C1439      C1440   1.405       .  A
C1439      H1449   1.084       .  S
C1440      C1441   1.409       .  A
C1441      H1450   1.085       .  S
C1442      C1443   1.412       .  A
C1442      H1451   1.084       .  S
C1443      C1444   1.411       .  A
C1444      H1452   1.084       .  S
C1453      C1454   1.403       .  A
C1453      C1458   1.406       .  A
C1453      H1469   1.084       .  S
C1454      C1455   1.405       .  A
C1454      H1470   1.083       .  S
C1455      C1465   1.415       .  A
C1455      C1456   1.416       .  A
C1456      C1462   1.409       .  A
C1456      C1457   1.418       .  A
C1457      C1459   1.414       .  A
C1457      C1458   1.409       .  A
C1458      C1466   1.408       .  A
C1459      C1468   1.411       .  A
C1459      C1460   1.404       .  A
C1460      C1461   1.401       .  A
C1460      H1471   1.083       .  S
C1461      C1462   1.404       .  A
C1461      H1472   1.084       .  S
C1462      C1463   1.403       .  A
C1463      C1464   1.408       .  A
C1463      H1473   1.085       .  S
C1464      C1465   1.407       .  A
C1465      H1474   1.084       .  S
C1466      C1467   1.413       .  A
C1466      H1475   1.084       .  S
C1467      C1468   1.410       .  A
C1468      H1476   1.084       .  S
C1477      C1478   1.402       .  A
C1477      C1482   1.405       .  A
C1477      H1493   1.083       .  S
C1478      C1479   1.405       .  A
C1478      H1494   1.083       .  S
C1479      C1489   1.411       .  A
C1479      C1480   1.412       .  A
C1480      C1486   1.410       .  A
C1480      C1481   1.419       .  A
C1481      C1483   1.412       .  A
C1481      C1482   1.411       .  A
C1482      C1490   1.410       .  A
C1483      C1492   1.412       .  A
C1483      C1484   1.405       .  A
C1484      C1485   1.402       .  A
C1484      H1495   1.082       .  S
C1485      C1486   1.405       .  A
C1485      H1496   1.084       .  S
C1486      C1487   1.408       .  A
C1487      C1488   1.410       .  A
C1487      H1497   1.085       .  S
C1488      C1489   1.408       .  A
C1489      H1498   1.085       .  S
C1490      C1491   1.410       .  A
C1490      H1499   1.084       .  S
C1491      C1492   1.409       .  A
C1492      H1500   1.082       .  S
C1501      C1502   1.404       .  A
C1501      C1506   1.405       .  A
C1501      H1517   1.083       .  S
C1502      C1503   1.406       .  A
C1502      H1518   1.084       .  S
C1503      C1513   1.409       .  A
C1503      C1504   1.411       .  A
C1504      C1510   1.414       .  A
C1504      C1505   1.415       .  A
C1505      C1507   1.409       .  A
C1505      C1506   1.415       .  A
C1506      C1514   1.414       .  A
C1507      C1516   1.400       .  A
C1507      C1508   1.404       .  A
C1508      C1509   1.398       .  A
C1508      H1519   1.084       .  S
C1509      C1510   1.402       .  A
C1509      H1520   1.084       .  S
C1510      C1511   1.403       .  A
C1511      C1512   1.403       .  A
C1511      H1521   1.085       .  S
C1512      C1513   1.409       .  A
C1513      H1522   1.084       .  S
C1514      C1515   1.407       .  A
C1514      H1523   1.084       .  S
C1515      C1516   1.410       .  A
C1516      H1524   1.085       .  S
C1525      C1526   1.402       .  A
C1525      C1530   1.405       .  A
C1525      H1541   1.084   1_565  S
C1526      C1527   1.405       .  A
C1526      H1542   1.083   1_565  S
C1527      C1537   1.413       .  A
C1527      C1528   1.413       .  A
C1528      C1534   1.410       .  A
C1528      C1529   1.424       .  A
C1529      C1531   1.415       .  A
C1529      C1530   1.409       .  A
C1530      C1538   1.408       .  A
C1531      C1540   1.420       .  A
C1531      C1532   1.406       .  A
C1532      C1533   1.407       .  A
C1532      H1543   1.083       .  S
C1533      C1534   1.407       .  A
C1533      H1544   1.083       .  S
C1534      C1535   1.416       .  A
C1535      C1536   1.416       .  A
C1535      H1545   1.084       .  S
C1536      C1537   1.411       .  A
C1537      H1546   1.084       .  S
C1538      C1539   1.412       .  A
C1538      H1547   1.085   1_565  S
C1539      C1540   1.410       .  A
C1540      H1548   1.084       .  S
C1549      C1550   1.408       .  A
C1549      C1554   1.407       .  A
C1549      H1565   1.083       .  S
C1550      C1551   1.407       .  A
C1550      H1566   1.083       .  S
C1551      C1561   1.423       .  A
C1551      C1552   1.416       .  A
C1552      C1558   1.405   1_565  A
C1552      C1553   1.419       .  A
C1553      C1555   1.413       .  A
C1553      C1554   1.410       .  A
C1554      C1562   1.414       .  A
C1555      C1564   1.403       .  A
C1555      C1556   1.402   1_565  A
C1556      C1557   1.396       .  A
C1556      H1567   1.084       .  S
C1557      C1558   1.404       .  A
C1557      H1568   1.084       .  S
C1558      C1559   1.396       .  A
C1559      C1560   1.415   1_545  A
C1559      H1569   1.083       .  S
C1560      C1561   1.414       .  A
C1561      H1570   1.083       .  S
C1562      C1563   1.414       .  A
C1562      H1571   1.084       .  S
C1563      C1564   1.409       .  A
C1564      H1572   1.085       .  S
C1573      C1574   1.395       .  A
C1573      C1578   1.402       .  A
C1573      H1589   1.084       .  S
C1574      C1575   1.401       .  A
C1574      H1590   1.081       .  S
C1575      C1585   1.397       .  A
C1575      C1576   1.412       .  A
C1576      C1582   1.411       .  A
C1576      C1577   1.409       .  A
C1577      C1579   1.414       .  A
C1577      C1578   1.410       .  A
C1578      C1586   1.395       .  A
C1579      C1588   1.407       .  A
C1579      C1580   1.404   1_565  A
C1580      C1581   1.401       .  A
C1580      H1591   1.083       .  S
C1581      C1582   1.404   1_545  A
C1581      H1592   1.084       .  S
C1582      C1583   1.403       .  A
C1583      C1584   1.406       .  A
C1583      H1593   1.084   1_565  S
C1584      C1585   1.402       .  A
C1585      H1594   1.084       .  S
C1586      C1587   1.403       .  A
C1586      H1595   1.085       .  S
C1587      C1588   1.403       .  A
C1588      H1596   1.084   1_565  S
C1597      C1598   1.399       .  A
C1597      C1602   1.403       .  A
C1597      H1613   1.082       .  S
C1598      C1599   1.404       .  A
C1598      H1614   1.084       .  S
C1599      C1609   1.402       .  A
C1599      C1600   1.409       .  A
C1600      C1606   1.413       .  A
C1600      C1601   1.415       .  A
C1601      C1603   1.411       .  A
C1601      C1602   1.412       .  A
C1602      C1610   1.406       .  A
C1603      C1612   1.408       .  A
C1603      C1604   1.405       .  A
C1604      C1605   1.402       .  A
C1604      H1615   1.083   1_565  S
C1605      C1606   1.404       .  A
C1605      H1616   1.083   1_565  S
C1606      C1607   1.411       .  A
C1607      C1608   1.407       .  A
C1607      H1617   1.084       .  S
C1608      C1609   1.409       .  A
C1609      H1618   1.085       .  S
C1610      C1611   1.407       .  A
C1610      H1619   1.083       .  S
C1611      C1612   1.409       .  A
C1612      H1620   1.084       .  S
C1621      C1622   1.394       .  A
C1621      C1626   1.400       .  A
C1621      H1637   1.084       .  S
C1622      C1623   1.402       .  A
C1622      H1638   1.083       .  S
C1623      C1633   1.393       .  A
C1623      C1624   1.407       .  A
C1624      C1630   1.415       .  A
C1624      C1625   1.410       .  A
C1625      C1627   1.408       .  A
C1625      C1626   1.414       .  A
C1626      C1634   1.399       .  A
C1627      C1636   1.402       .  A
C1627      C1628   1.405       .  A
C1628      C1629   1.402       .  A
C1628      H1639   1.084       .  S
C1629      C1630   1.405       .  A
C1629      H1640   1.083       .  S
C1630      C1631   1.411       .  A
C1631      C1632   1.409       .  A
C1631      H1641   1.084       .  S
C1632      C1633   1.409       .  A
C1633      H1642   1.084       .  S
C1634      C1635   1.403       .  A
C1634      H1643   1.084       .  S
C1635      C1636   1.412       .  A
C1636      H1644   1.084       .  S
C1645      C1646   1.399       .  A
C1645      C1650   1.404       .  A
C1645      H1661   1.084       .  S
C1646      C1647   1.404       .  A
C1646      H1662   1.084       .  S
C1647      C1657   1.401       .  A
C1647      C1648   1.411       .  A
C1648      C1654   1.410       .  A
C1648      C1649   1.408       .  A
C1649      C1651   1.412       .  A
C1649      C1650   1.411       .  A
C1650      C1658   1.402       .  A
C1651      C1660   1.399       .  A
C1651      C1652   1.402       .  A
C1652      C1653   1.396       .  A
C1652      H1663   1.084       .  S
C1653      C1654   1.403       .  A
C1653      H1664   1.084       .  S
C1654      C1655   1.398       .  A
C1655      C1656   1.409       .  A
C1655      H1665   1.084       .  S
C1656      C1657   1.408       .  A
C1657      H1666   1.084       .  S
C1658      C1659   1.411       .  A
C1658      H1667   1.085       .  S
C1659      C1660   1.406       .  A
C1660      H1668   1.085       .  S
C1669      C1670   1.396       .  A
C1669      C1674   1.401       .  A
C1669      H1685   1.084       .  S
C1670      C1671   1.403       .  A
C1670      H1686   1.084       .  S
C1671      C1681   1.394       .  A
C1671      C1672   1.409       .  A
C1672      C1678   1.412       .  A
C1672      C1673   1.401       .  A
C1673      C1675   1.407       .  A
C1673      C1674   1.414       .  A
C1674      C1682   1.399       .  A
C1675      C1684   1.386       .  A
C1675      C1676   1.402       .  A
C1676      C1677   1.391       .  A
C1676      H1687   1.084       .  S
C1677      C1678   1.400       .  A
C1677      H1688   1.084       .  S
C1678      C1679   1.391       .  A
C1679      C1680   1.403       .  A
C1679      H1689   1.084       .  S
C1680      C1681   1.406       .  A
C1681      H1690   1.084       .  S
C1682      C1683   1.400       .  A
C1682      H1691   1.084       .  S
C1683      C1684   1.406       .  A
C1684      H1692   1.084       .  S
C1693      C1694   1.398       .  A
C1693      C1698   1.403       .  A
C1693      H1709   1.084       .  S
C1694      C1695   1.404       .  A
C1694      H1710   1.084       .  S
C1695      C1705   1.397       .  A
C1695      C1696   1.408       .  A
C1696      C1702   1.414       .  A
C1696      C1697   1.411       .  A
C1697      C1699   1.409       .  A
C1697      C1698   1.413       .  A
C1698      C1706   1.404       .  A
C1699      C1708   1.401       .  A
C1699      C1700   1.404       .  A
C1700      C1701   1.399       .  A
C1700      H1711   1.084       .  S
C1701      C1702   1.403       .  A
C1701      H1712   1.084       .  S
C1702      C1703   1.406       .  A
C1703      C1704   1.407       .  A
C1703      H1713   1.084       .  S
C1704      C1705   1.410       .  A
C1705      H1714   1.084       .  S
C1706      C1707   1.407       .  A
C1706      H1715   1.084       .  S
C1707      C1708   1.409       .  A
C1708      H1716   1.084       .  S
C1717      C1718   1.400       .  A
C1717      C1722   1.404       .  A
C1717      H1733   1.084       .  S
C1718      C1719   1.404       .  A
C1718      H1734   1.084       .  S
C1719      C1729   1.404       .  A
C1719      C1720   1.410       .  A
C1720      C1726   1.414       .  A
C1720      C1721   1.417       .  A
C1721      C1723   1.410       .  A
C1721      C1722   1.412       .  A
C1722      C1730   1.408       .  A
C1723      C1732   1.409       .  A
C1723      C1724   1.406       .  A
C1724      C1725   1.403       .  A
C1724      H1735   1.083       .  S
C1725      C1726   1.404       .  A
C1725      H1736   1.083       .  S
C1726      C1727   1.412       .  A
C1727      C1728   1.406       .  A
C1727      H1737   1.084       .  S
C1728      C1729   1.408       .  A
C1729      H1738   1.085       .  S
C1730      C1731   1.410       .  A
C1730      H1739   1.084       .  S
C1731      C1732   1.412       .  A
C1732      H1740   1.084       .  S
C1741      C1742   1.399       .  A
C1741      C1746   1.403       .  A
C1741      H1757   1.084       .  S
C1742      C1743   1.404       .  A
C1742      H1758   1.084       .  S
C1743      C1753   1.401       .  A
C1743      C1744   1.409       .  A
C1744      C1750   1.414       .  A
C1744      C1745   1.414       .  A
C1745      C1747   1.410       .  A
C1745      C1746   1.414       .  A
C1746      C1754   1.406       .  A
C1747      C1756   1.406       .  A
C1747      C1748   1.405   1_655  A
C1748      C1749   1.402       .  A
C1748      H1759   1.084       .  S
C1749      C1750   1.404   1_455  A
C1749      H1760   1.084       .  S
C1750      C1751   1.410       .  A
C1751      C1752   1.406       .  A
C1751      H1761   1.084   1_655  S
C1752      C1753   1.406       .  A
C1753      H1762   1.085       .  S
C1754      C1755   1.407       .  A
C1754      H1763   1.084       .  S
C1755      C1756   1.410       .  A
C1756      H1764   1.084   1_655  S
C1765      C1766   1.404       .  A
C1765      C1770   1.406       .  A
C1765      H1781   1.083       .  S
C1766      C1767   1.405       .  A
C1766      H1782   1.084       .  S
C1767      C1777   1.412       .  A
C1767      C1768   1.413       .  A
C1768      C1774   1.411   1_655  A
C1768      C1769   1.419       .  A
C1769      C1771   1.412   1_655  A
C1769      C1770   1.411       .  A
C1770      C1778   1.411       .  A
C1771      C1780   1.409       .  A
C1771      C1772   1.404       .  A
C1772      C1773   1.401       .  A
C1772      H1783   1.083       .  S
C1773      C1774   1.404       .  A
C1773      H1784   1.084       .  S
C1774      C1775   1.407       .  A
C1775      C1776   1.407   1_455  A
C1775      H1785   1.085       .  S
C1776      C1777   1.409       .  A
C1777      H1786   1.084       .  S
C1778      C1779   1.410       .  A
C1778      H1787   1.085       .  S
C1779      C1780   1.408   1_655  A
C1780      H1788   1.085       .  S
C1789      C1790   1.408       .  A
C1789      C1794   1.407   1_455  A
C1789      H1805   1.083       .  S
C1790      C1791   1.407   1_455  A
C1790      H1806   1.083       .  S
C1791      C1801   1.417       .  A
C1791      C1792   1.412       .  A
C1792      C1798   1.411       .  A
C1792      C1793   1.421       .  A
C1793      C1795   1.409       .  A
C1793      C1794   1.414       .  A
C1794      C1802   1.421   1_655  A
C1795      C1804   1.403       .  A
C1795      C1796   1.404       .  A
C1796      C1797   1.398       .  A
C1796      H1807   1.084       .  S
C1797      C1798   1.403       .  A
C1797      H1808   1.084       .  S
C1798      C1799   1.404       .  A
C1799      C1800   1.411       .  A
C1799      H1809   1.084       .  S
C1800      C1801   1.415       .  A
C1801      H1810   1.084       .  S
C1802      C1803   1.412       .  A
C1802      H1811   1.084       .  S
C1803      C1804   1.411   1_455  A
C1804      H1812   1.085       .  S
C1813      C1814   1.401       .  A
C1813      C1818   1.405       .  A
C1813      H1829   1.084   1_655  S
C1814      C1815   1.404       .  A
C1814      H1830   1.084       .  S
C1815      C1825   1.410       .  A
C1815      C1816   1.414       .  A
C1816      C1822   1.408       .  A
C1816      C1817   1.416       .  A
C1817      C1819   1.415       .  A
C1817      C1818   1.409       .  A
C1818      C1826   1.405   1_655  A
C1819      C1828   1.410       .  A
C1819      C1820   1.403       .  A
C1820      C1821   1.400       .  A
C1820      H1831   1.083       .  S
C1821      C1822   1.405       .  A
C1821      H1832   1.084       .  S
C1822      C1823   1.402       .  A
C1823      C1824   1.413       .  A
C1823      H1833   1.084       .  S
C1824      C1825   1.408       .  A
C1825      H1834   1.084       .  S
C1826      C1827   1.409   1_455  A
C1826      H1835   1.085       .  S
C1827      C1828   1.404       .  A
C1828      H1836   1.084       .  S
C1837      C1838   1.402       .  A
C1837      C1842   1.405       .  A
C1837      H1853   1.084       .  S
C1838      C1839   1.405   1_455  A
C1838      H1854   1.083       .  S
C1839      C1849   1.412       .  A
C1839      C1840   1.415       .  A
C1840      C1846   1.409       .  A
C1840      C1841   1.417       .  A
C1841      C1843   1.416       .  A
C1841      C1842   1.409   1_655  A
C1842      C1850   1.403       .  A
C1843      C1852   1.413       .  A
C1843      C1844   1.404       .  A
C1844      C1845   1.401       .  A
C1844      H1855   1.083       .  S
C1845      C1846   1.405       .  A
C1845      H1856   1.084       .  S
C1846      C1847   1.404       .  A
C1847      C1848   1.411       .  A
C1847      H1857   1.084       .  S
C1848      C1849   1.409       .  A
C1849      H1858   1.084   1_655  S
C1850      C1851   1.410   1_455  A
C1850      H1859   1.085       .  S
C1851      C1852   1.405       .  A
C1852      H1860   1.084       .  S
C1861      C1862   1.403       .  A
C1861      C1866   1.405       .  A
C1861      H1877   1.084       .  S
C1862      C1863   1.405       .  A
C1862      H1878   1.081       .  S
C1863      C1873   1.414       .  A
C1863      C1864   1.413       .  A
C1864      C1870   1.410       .  A
C1864      C1865   1.418       .  A
C1865      C1867   1.413       .  A
C1865      C1866   1.411       .  A
C1866      C1874   1.408       .  A
C1867      C1876   1.407       .  A
C1867      C1868   1.403       .  A
C1868      C1869   1.400       .  A
C1868      H1879   1.084       .  S
C1869      C1870   1.404       .  A
C1869      H1880   1.083       .  S
C1870      C1871   1.405       .  A
C1871      C1872   1.409       .  A
C1871      H1881   1.084       .  S
C1872      C1873   1.410       .  A
C1873      H1882   1.083       .  S
C1874      C1875   1.408       .  A
C1874      H1883   1.085       .  S
C1875      C1876   1.406       .  A
C1876      H1884   1.085       .  S
C1885      C1886   1.405       .  A
C1885      C1890   1.406       .  A
C1885      H1901   1.083       .  S
C1886      C1887   1.405       .  A
C1886      H1902   1.083       .  S
C1887      C1897   1.417       .  A
C1887      C1888   1.415       .  A
C1888      C1894   1.406       .  A
C1888      C1889   1.416       .  A
C1889      C1891   1.413       .  A
C1889      C1890   1.411       .  A
C1890      C1898   1.413       .  A
C1891      C1900   1.402       .  A
C1891      C1892   1.403       .  A
C1892      C1893   1.397       .  A
C1892      H1903   1.084       .  S
C1893      C1894   1.405       .  A
C1893      H1904   1.084       .  S
C1894      C1895   1.396       .  A
C1895      C1896   1.415       .  A
C1895      H1905   1.084       .  S
C1896      C1897   1.408       .  A
C1897      H1906   1.083       .  S
C1898      C1899   1.409       .  A
C1898      H1907   1.084       .  S
C1899      C1900   1.406       .  A
C1900      H1908   1.085       .  S
C1909      C1910   1.399       .  A
C1909      C1914   1.404       .  A
C1909      H1925   1.084       .  S
C1910      C1911   1.403       .  A
C1910      H1926   1.084       .  S
C1911      C1921   1.405       .  A
C1911      C1912   1.413       .  A
C1912      C1918   1.412       .  A
C1912      C1913   1.417       .  A
C1913      C1915   1.414       .  A
C1913      C1914   1.410       .  A
C1914      C1922   1.403       .  A
C1915      C1924   1.414       .  A
C1915      C1916   1.406       .  A
C1916      C1917   1.404       .  A
C1916      H1927   1.083       .  S
C1917      C1918   1.405       .  A
C1917      H1928   1.084       .  S
C1918      C1919   1.409       .  A
C1919      C1920   1.408       .  A
C1919      H1929   1.084       .  S
C1920      C1921   1.405       .  A
C1921      H1930   1.085       .  S
C1922      C1923   1.408       .  A
C1922      H1931   1.085       .  S
C1923      C1924   1.409       .  A
C1924      H1932   1.084       .  S
C1933      C1934   1.405       .  A
C1933      C1938   1.405       .  A
C1933      H1949   1.083       .  S
C1934      C1935   1.407       .  A
C1934      H1950   1.084       .  S
C1935      C1945   1.409       .  A
C1935      C1936   1.409       .  A
C1936      C1942   1.415       .  A
C1936      C1937   1.417       .  A
C1937      C1939   1.406       .  A
C1937      C1938   1.415       .  A
C1938      C1946   1.417       .  A
C1939      C1948   1.398       .  A
C1939      C1940   1.404       .  A
C1940      C1941   1.397       .  A
C1940      H1951   1.084       .  S
C1941      C1942   1.402       .  A
C1941      H1952   1.084       .  S
C1942      C1943   1.406       .  A
C1943      C1944   1.402       .  A
C1943      H1953   1.085       .  S
C1944      C1945   1.410       .  A
C1945      H1954   1.085       .  S
C1946      C1947   1.411       .  A
C1946      H1955   1.084       .  S
C1947      C1948   1.414       .  A
C1948      H1956   1.084       .  S
C1957      C1958   1.397       .  A
C1957      C1962   1.402       .  A
C1957      H1973   1.084       .  S
C1958      C1959   1.403       .  A
C1958      H1974   1.084       .  S
C1959      C1969   1.400       .  A
C1959      C1960   1.409       .  A
C1960      C1966   1.414       .  A
C1960      C1961   1.417       .  A
C1961      C1963   1.411       .  A
C1961      C1962   1.413       .  A
C1962      C1970   1.402       .  A
C1963      C1972   1.414       .  A
C1963      C1964   1.407       .  A
C1964      C1965   1.406       .  A
C1964      H1975   1.083       .  S
C1965      C1966   1.406       .  A
C1965      H1976   1.083       .  S
C1966      C1967   1.416       .  A
C1967      C1968   1.409       .  A
C1967      H1977   1.084       .  S
C1968      C1969   1.408       .  A
C1969      H1978   1.085       .  S
C1970      C1971   1.405       .  A
C1970      H1979   1.084       .  S
C1971      C1972   1.414       .  A
C1972      H1980   1.084       .  S
C1981      C1982   1.406       .  A
C1981      C1986   1.407       .  A
C1981      H1997   1.083       .  S
C1982      C1983   1.406       .  A
C1982      H1998   1.083       .  S
C1983      C1993   1.417       .  A
C1983      C1984   1.414       .  A
C1984      C1990   1.409       .  A
C1984      C1985   1.417       .  A
C1985      C1987   1.411       .  A
C1985      C1986   1.410       .  A
C1986      C1994   1.414       .  A
C1987      C1996   1.402       .  A
C1987      C1988   1.402       .  A
C1988      C1989   1.396       .  A
C1988      H1999   1.084       .  S
C1989      C1990   1.402       .  A
C1989      H2000   1.084       .  S
C1990      C1991   1.397       .  A
C1991      C1992   1.408       .  A
C1991      H2001   1.084       .  S
C1992      C1993   1.411       .  A
C1993      H2002   1.084       .  S
C1994      C1995   1.416       .  A
C1994      H2003   1.084       .  S
C1995      C1996   1.408       .  A
C1996      H2004   1.084       .  S
C2005      C2006   1.401       .  A
C2005      C2010   1.404       .  A
C2005      H2021   1.084       .  S
C2006      C2007   1.404       .  A
C2006      H2022   1.083       .  S
C2007      C2017   1.409       .  A
C2007      C2008   1.413       .  A
C2008      C2014   1.410       .  A
C2008      C2009   1.416       .  A
C2009      C2011   1.413       .  A
C2009      C2010   1.410       .  A
C2010      C2018   1.405       .  A
C2011      C2020   1.406       .  A
C2011      C2012   1.403       .  A
C2012      C2013   1.400       .  A
C2012      H2023   1.082       .  S
C2013      C2014   1.405       .  A
C2013      H2024   1.083       .  S
C2014      C2015   1.406       .  A
C2015      C2016   1.410       .  A
C2015      H2025   1.085       .  S
C2016      C2017   1.406       .  A
C2017      H2026   1.084       .  S
C2018      C2019   1.409       .  A
C2018      H2027   1.084       .  S
C2019      C2020   1.406       .  A
C2020      H2028   1.084       .  S
C2029      C2030   1.404       .  A
C2029      C2034   1.404       .  A
C2029      H2045   1.084       .  S
C2030      C2031   1.407       .  A
C2030      H2046   1.083       .  S
C2031      C2041   1.412       .  A
C2031      C2032   1.410       .  A
C2032      C2038   1.413       .  A
C2032      C2033   1.420       .  A
C2033      C2035   1.410       .  A
C2033      C2034   1.414       .  A
C2034      C2042   1.413       .  A
C2035      C2044   1.407       .  A
C2035      C2036   1.405       .  A
C2036      C2037   1.401       .  A
C2036      H2047   1.084       .  S
C2037      C2038   1.405       .  A
C2037      H2048   1.083       .  S
C2038      C2039   1.412       .  A
C2039      C2040   1.411       .  A
C2039      H2049   1.084       .  S
C2040      C2041   1.417       .  A
C2041      H2050   1.084       .  S
C2042      C2043   1.407       .  A
C2042      H2051   1.084       .  S
C2043      C2044   1.409       .  A
C2044      H2052   1.085       .  S
C2053      C2054   1.394       .  A
C2053      C2058   1.400       .  A
C2053      H2069   1.084       .  S
C2054      C2055   1.404       .  A
C2054      H2070   1.084       .  S
C2055      C2065   1.393       .  A
C2055      C2056   1.406       .  A
C2056      C2062   1.415       .  A
C2056      C2057   1.411       .  A
C2057      C2059   1.408       .  A
C2057      C2058   1.414       .  A
C2058      C2066   1.399       .  A
C2059      C2068   1.404       .  A
C2059      C2060   1.406       .  A
C2060      C2061   1.403       .  A
C2060      H2071   1.084       .  S
C2061      C2062   1.404       .  A
C2061      H2072   1.083       .  S
C2062      C2063   1.413       .  A
C2063      C2064   1.408       .  A
C2063      H2073   1.084       .  S
C2064      C2065   1.414       .  A
C2065      H2074   1.084       .  S
C2066      C2067   1.403       .  A
C2066      H2075   1.084       .  S
C2067      C2068   1.414       .  A
C2068      H2076   1.084       .  S
C2077      C2078   1.402       .  A
C2077      C2082   1.406       .  A
C2077      H2093   1.084       .  S
C2078      C2079   1.404       .  A
C2078      H2094   1.083       .  S
C2079      C2089   1.410       .  A
C2079      C2080   1.415       .  A
C2080      C2086   1.405       .  A
C2080      C2081   1.408       .  A
C2081      C2083   1.414       .  A
C2081      C2082   1.408       .  A
C2082      C2090   1.402       .  A
C2083      C2092   1.396       .  A
C2083      C2084   1.400       .  A
C2084      C2085   1.392       .  A
C2084      H2095   1.084       .  S
C2085      C2086   1.403       .  A
C2085      H2096   1.084       .  S
C2086      C2087   1.388       .  A
C2087      C2088   1.412       .  A
C2087      H2097   1.084       .  S
C2088      C2089   1.406       .  A
C2089      H2098   1.084       .  S
C2090      C2091   1.413       .  A
C2090      H2099   1.084       .  S
C2091      C2092   1.401       .  A
C2092      H2100   1.084       .  S
C2101      C2102   1.400       .  A
C2101      C2106   1.403       .  A
C2101      H2117   1.084       .  S
C2102      C2103   1.406       .  A
C2102      H2118   1.083       .  S
C2103      C2113   1.406       .  A
C2103      C2104   1.411       .  A
C2104      C2110   1.410       .  A
C2104      C2105   1.409       .  A
C2105      C2107   1.413       .  A
C2105      C2106   1.412       .  A
C2106      C2114   1.404       .  A
C2107      C2116   1.402       .  A
C2107      C2108   1.402       .  A
C2108      C2109   1.398       .  A
C2108      H2119   1.084       .  S
C2109      C2110   1.405       .  A
C2109      H2120   1.083       .  S
C2110      C2111   1.401       .  A
C2111      C2112   1.410       .  A
C2111      H2121   1.084       .  S
C2112      C2113   1.411       .  A
C2113      H2122   1.084       .  S
C2114      C2115   1.409       .  A
C2114      H2123   1.085       .  S
C2115      C2116   1.408       .  A
C2116      H2124   1.085       .  S
C2125      C2126   1.402       .  A
C2125      C2130   1.405       .  A
C2125      H2141   1.084       .  S
C2126      C2127   1.405       .  A
C2126      H2142   1.084       .  S
C2127      C2137   1.409       .  A
C2127      C2128   1.413   1_455  A
C2128      C2134   1.412       .  A
C2128      C2129   1.414       .  A
C2129      C2131   1.413       .  A
C2129      C2130   1.413   1_655  A
C2130      C2138   1.408       .  A
C2131      C2140   1.402       .  A
C2131      C2132   1.402       .  A
C2132      C2133   1.398       .  A
C2132      H2143   1.084       .  S
C2133      C2134   1.403       .  A
C2133      H2144   1.083       .  S
C2134      C2135   1.403       .  A
C2135      C2136   1.404       .  A
C2135      H2145   1.085       .  S
C2136      C2137   1.406   1_655  A
C2137      H2146   1.084       .  S
C2138      C2139   1.407   1_455  A
C2138      H2147   1.084       .  S
C2139      C2140   1.401       .  A
C2140      H2148   1.085       .  S
C2149      C2150   1.404       .  A
C2149      C2154   1.405   1_455  A
C2149      H2165   1.083       .  S
C2150      C2151   1.406   1_455  A
C2150      H2166   1.083       .  S
C2151      C2161   1.410       .  A
C2151      C2152   1.411       .  A
C2152      C2158   1.412       .  A
C2152      C2153   1.414       .  A
C2153      C2155   1.410       .  A
C2153      C2154   1.414       .  A
C2154      C2162   1.412       .  A
C2155      C2164   1.398       .  A
C2155      C2156   1.402       .  A
C2156      C2157   1.396       .  A
C2156      H2167   1.084       .  S
C2157      C2158   1.402       .  A
C2157      H2168   1.081       .  S
C2158      C2159   1.401       .  A
C2159      C2160   1.404       .  A
C2159      H2169   1.082       .  S
C2160      C2161   1.411       .  A
C2161      H2170   1.084   1_655  S
C2162      C2163   1.407       .  A
C2162      H2171   1.084       .  S
C2163      C2164   1.405       .  A
C2164      H2172   1.085       .  S
C2173      C2174   1.398       .  A
C2173      C2178   1.403       .  A
C2173      H2189   1.083       .  S
C2174      C2175   1.403   1_455  A
C2174      H2190   1.084       .  S
C2175      C2185   1.402       .  A
C2175      C2176   1.411       .  A
C2176      C2182   1.411       .  A
C2176      C2177   1.411   1_655  A
C2177      C2179   1.410   1_455  A
C2177      C2178   1.412       .  A
C2178      C2186   1.403       .  A
C2179      C2188   1.400   1_655  A
C2179      C2180   1.403       .  A
C2180      C2181   1.398       .  A
C2180      H2191   1.084       .  S
C2181      C2182   1.404       .  A
C2181      H2192   1.084       .  S
C2182      C2183   1.401       .  A
C2183      C2184   1.409       .  A
C2183      H2193   1.084       .  S
C2184      C2185   1.407       .  A
C2185      H2194   1.084       .  S
C2186      C2187   1.407       .  A
C2186      H2195   1.084       .  S
C2187      C2188   1.409       .  A
C2188      H2196   1.084       .  S
