geometry optimzed in LAMMPS
_audit_creation_date              2020-11-30 
_audit_creation_method            'lammps2cif' 
_symmetry_space_group_name_H-M    'P1' 
_symmetry_Int_Tables_number       1 
_symmetry_cell_setting            triclinic 
loop_ 
_symmetry_equiv_pos_as_xyz 
  x,y,z 
_cell_length_a                    40.51318444 
_cell_length_b                    41.74326343069794 
_cell_length_c                    40.54228263428363 
_cell_angle_alpha                 89.58445896511905 
_cell_angle_beta                  89.74027557144888 
_cell_angle_gamma                 90.3370575614575 
loop_ 
_atom_site_label 
_atom_site_type_symbol 
_atom_site_fract_x 
_atom_site_fract_y 
_atom_site_fract_z 
_atom_site_charge 
O1          O  0.08042197  0.21382594  0.03751041    -0.81000
O2          O  0.08062376  0.27551673  0.46893002    -0.81100
O3          O  0.12785090  0.27284086  0.07336144    -0.81100
O4          O  0.12523409  0.21609246  0.43199915    -0.81000
O5          O  0.08342640  0.27772400  0.04258856    -0.81100
O6          O  0.08187767  0.21095284  0.46490491    -0.81100
O7          O  0.12311661  0.27644474  0.43441927    -0.81000
O8          O  0.12429439  0.21255273  0.06962313    -0.81100
C9          C  0.09320246  0.21028025  0.06612866     1.08600
C10         C  0.09235067  0.27917992  0.43968582     1.08500
C11         C  0.09737513  0.27910499  0.07069499     1.08700
C12         C  0.09483480  0.20946694  0.43615916     1.08500
O13         O  0.14316865  0.17692642  0.46818969    -0.81100
O14         O  0.14500670  0.31233356  0.03566978    -0.81100
O15         O  0.18467336  0.20624384  0.03230869    -0.81100
O16         O  0.18391344  0.28341306  0.46912800    -0.81000
O17         O  0.13905880  0.31280805  0.47521466    -0.81100
O18         O  0.13943025  0.17707190  0.02877127    -0.81100
O19         O  0.18620152  0.21003619  0.46643941    -0.81000
O20         O  0.18736347  0.27865742  0.03533363    -0.81100
Co21       Co  0.10978942  0.20247702  0.99965006     1.51500
Co22       Co  0.11107351  0.28723809  0.50576061     1.51700
Co23       Co  0.15601561  0.24295879  0.04762078     1.51600
Co24       Co  0.15499127  0.24620762  0.45540512     1.51500
O25         O  0.13275761  0.24741375  0.00149332    -1.43000
C26         C  0.17384533  0.18160270  0.46419102     1.08600
C27         C  0.17560743  0.30679287  0.03983550     1.08700
C28         C  0.17031630  0.17874241  0.03376442     1.08600
C29         C  0.16948734  0.31084657  0.46860688     1.08600
O30         O  0.38077882  0.23406160  0.07683962    -0.81000
O31         O  0.37785268  0.27454606  0.43124722    -0.81100
O32         O  0.41422452  0.21687504  0.46526767    -0.81100
O33         O  0.41525645  0.29992736  0.02777320    -0.81000
O34         O  0.37129470  0.22520341  0.43209656    -0.81100
O35         O  0.37428574  0.29532597  0.06433670    -0.81100
O36         O  0.41489657  0.30494089  0.45830903    -0.81000
O37         O  0.42092981  0.22631671  0.03991091    -0.81100
C38         C  0.41078932  0.22861856  0.06998387     1.08600
C39         C  0.40308169  0.29385011  0.43133171     1.08500
C40         C  0.40073863  0.21613786  0.43653617     1.08700
C41         C  0.40323661  0.30422867  0.05665082     1.08500
O42         O  0.31517651  0.28582436  0.03146172    -0.81100
O43         O  0.31562732  0.21269713  0.45905214    -0.81100
O44         O  0.36443325  0.18841208  0.04333436    -0.81100
O45         O  0.35835190  0.31577889  0.47428527    -0.81000
O46         O  0.31744349  0.28834332  0.45181545    -0.81100
O47         O  0.31958384  0.21797356  0.04838872    -0.81100
O48         O  0.35611961  0.31565014  0.00885692    -0.81000
O49         O  0.35582891  0.18083811  0.47743479    -0.81100
Co50       Co  0.34690842  0.25772402  0.05231548     1.51500
Co51       Co  0.34533951  0.25044394  0.46300743     1.51700
Co52       Co  0.38953594  0.20759957  0.00682900     1.51600
Co53       Co  0.39025595  0.27984247  0.48954024     1.51500
O54         O  0.36540182  0.24946877  0.00741795    -1.43000
C55         C  0.32790002  0.31305789  0.02472300     1.08600
C56         C  0.32778146  0.18480743  0.46398496     1.08700
C57         C  0.33520191  0.19197047  0.05381861     1.08600
C58         C  0.33171707  0.31520069  0.45668650     1.08600
O59         O  0.21470858  0.05634779  0.16786307    -0.81000
O60         O  0.30100428  0.45669567  0.16145611    -0.81100
O61         O  0.18749459  0.46125665  0.14028201    -0.81100
O62         O  0.32169294  0.01775598  0.12599291    -0.81000
O63         O  0.22640675  0.45088924  0.17725971    -0.81100
O64         O  0.28596898  0.03748285  0.16371183    -0.81100
O65         O  0.32751363  0.48389662  0.12101818    -0.81000
O66         O  0.18610826  0.02644367  0.13145817    -0.81100
C67         C  0.18725119  0.04740325  0.15506394     1.08600
C68         C  0.32771666  0.46544819  0.14714818     1.08500
C69         C  0.19627716  0.45077519  0.16854006     1.08700
C70         C  0.31565774  0.03196110  0.15373410     1.08500
O71         O  0.26072692  0.06813002  0.11796455    -0.81100
O72         O  0.23145945  0.42601486  0.11523898    -0.81100
O73         O  0.21372464  0.02564766  0.06430230    -0.81100
O74         O  0.29145343  0.45706712  0.07341660    -0.81000
O75         O  0.28402715  0.42605634  0.11744504    -0.81100
O76         O  0.22969210  0.05948008  0.10311406    -0.81100
O77         O  0.30396991  0.04830946  0.09103267    -0.81000
O78         O  0.21341504  0.45692693  0.07432702    -0.81100
Co79       Co  0.24161227  0.02935475  0.14184265     1.52700
Co80       Co  0.25775353  0.45729497  0.14049173     1.51700
Co81       Co  0.20623409  0.99266664  0.09923379     1.51600
Co82       Co  0.29567239  0.00090447  0.08654351     1.51500
O83         O  0.25450756  0.99600938  0.11430108    -1.43000
C84         C  0.28827093  0.07204977  0.10262183     1.08600
C85         C  0.21844635  0.42907718  0.08694497     1.08700
C86         C  0.21835619  0.05419306  0.07408048     1.08600
C87         C  0.29251676  0.42971182  0.08770420     1.08600
O88         O  0.17718809  0.02708368  0.36441669    -0.81000
O89         O  0.31450933  0.46702091  0.36842582    -0.81100
O90         O  0.28131933  0.02958280  0.31531897    -0.81100
O91         O  0.20751868  0.46662835  0.32498345    -0.81000
O92         O  0.31567579  0.02769444  0.35773615    -0.81100
O93         O  0.17457222  0.47213345  0.36833282    -0.81100
O94         O  0.28194303  0.46453998  0.32512483    -0.81000
O95         O  0.20847773  0.02821336  0.31978518    -0.81100
C96         C  0.18012720  0.03071170  0.33344185     1.08600
C97         C  0.31070171  0.46249563  0.33795369     1.08500
C98         C  0.31024324  0.03281991  0.32731413     1.08700
C99         C  0.17843259  0.46626224  0.33804795     1.08500
O100        O  0.21044395  0.46351196  0.42830074    -0.81100
O101        O  0.28339887  0.03837172  0.41946631    -0.81100
O102        O  0.21648052  0.06467897  0.37937628    -0.81100
O103        O  0.27431239  0.43163669  0.38797075    -0.81000
O104        O  0.27962836  0.46623867  0.42918534    -0.81100
O105        O  0.21624068  0.03311975  0.42341581    -0.81100
O106        O  0.21135885  0.43280980  0.38450703    -0.81000
O107        O  0.27895192  0.06711696  0.37399310    -0.81100
Co108      Co  0.20204005  0.99719877  0.39384738     1.51500
Co109      Co  0.29542447  0.00019058  0.39176651     1.51700
Co110      Co  0.24629563  0.04272027  0.34732974     1.51600
Co111      Co  0.24423825  0.45342186  0.35537979     1.51500
O112        O  0.24832161  0.99795152  0.37091188    -1.43000
C113        C  0.20777506  0.43553402  0.41522265     1.08600
C114        C  0.28565724  0.06550440  0.40440042     1.08700
C115        C  0.21458800  0.06124852  0.41051553     1.08600
C116        C  0.28195161  0.43772722  0.41780756     1.08600
O117        O  0.03309136  0.17985917  0.21609223    -0.81000
O118        O  0.45530261  0.17672640  0.28805501    -0.81100
O119        O  0.46713664  0.13946242  0.18099709    -0.81100
O120        O  0.03112400  0.13641876  0.32165901    -0.81000
O121        O  0.46039456  0.17983391  0.21514868    -0.81100
O122        O  0.03447037  0.17799070  0.28725717    -0.81100
O123        O  0.45970833  0.13374482  0.31941055    -0.81000
O124        O  0.01732373  0.14095674  0.18329211    -0.81100
C125        C  0.03058452  0.16876837  0.18712657     1.08600
C126        C  0.45220159  0.16294593  0.31617593     1.08500
C127        C  0.46130703  0.16882805  0.18575838     1.08700
C128        C  0.03680356  0.16607165  0.31616318     1.08500
O129        O  0.06791507  0.11817927  0.28027744    -0.81100
O130        O  0.42736833  0.11868310  0.21623071    -0.81100
O131        O  0.03142428  0.08274144  0.18620437    -0.81100
O132        O  0.46167514  0.07595952  0.28234860    -0.81000
O133        O  0.42496832  0.11499702  0.27807702    -0.81100
O134        O  0.06273851  0.11672487  0.21548029    -0.81100
O135        O  0.03376382  0.07745752  0.28248113    -0.81000
O136        O  0.46268383  0.07872079  0.21423972    -0.81100
Co137      Co  0.04454613  0.14820959  0.25053475     1.51500
Co138      Co  0.44675360  0.14799151  0.24966706     1.51700
Co139      Co  0.00544607  0.10568388  0.21768369     1.51600
Co140      Co  0.49450185  0.10818759  0.29820464     1.51500
O141        O  0.49497718  0.13040984  0.25174416    -1.43000
C142        C  0.06314265  0.08834626  0.28235183     1.08600
C143        C  0.43320657  0.08932403  0.21106129     1.08700
C144        C  0.05987021  0.09428668  0.19377901     1.08600
C145        C  0.43191938  0.08586577  0.28391387     1.08600
O146        O  0.03587296  0.35696888  0.18463900    -0.81000
O147        O  0.46027429  0.36015954  0.31484554    -0.81100
O148        O  0.02906716  0.31401616  0.29172955    -0.81100
O149        O  0.46400136  0.32681936  0.20560771    -0.81000
O150        O  0.02556956  0.35573503  0.32413364    -0.81100
O151        O  0.47363419  0.36988019  0.17580146    -0.81100
O152        O  0.45734125  0.32131914  0.27744199    -0.81000
O153        O  0.03368296  0.31432986  0.21797644    -0.81100
C154        C  0.03842391  0.32700440  0.18937734     1.08600
C155        C  0.45335058  0.33138190  0.30693986     1.08500
C156        C  0.03138735  0.32626664  0.32048654     1.08700
C157        C  0.46337623  0.34127686  0.17794991     1.08500
O158        O  0.47439500  0.42754789  0.21350935    -0.81100
O159        O  0.03256102  0.41460112  0.28912738    -0.81100
O160        O  0.07461778  0.36867969  0.22530819    -0.81100
O161        O  0.42545132  0.38081653  0.27440738    -0.81000
O162        O  0.45832309  0.42192721  0.28170652    -0.81100
O163        O  0.04747601  0.41394034  0.22179584    -0.81100
O164        O  0.43461642  0.39066070  0.21277105    -0.81000
O165        O  0.06618650  0.37285937  0.28743643    -0.81100
Co166      Co  0.00783107  0.38997665  0.20531886     1.51500
Co167      Co  0.99557872  0.38401812  0.29889008     1.51700
Co168      Co  0.04591602  0.34275632  0.25530500     1.51600
Co169      Co  0.45018285  0.35468322  0.24283295     1.51500
O170        O  0.00056713  0.36638305  0.25092284    -1.43000
C171        C  0.44458493  0.41942895  0.20771192     1.08600
C172        C  0.06172323  0.40274752  0.29078225     1.08700
C173        C  0.07457314  0.39845193  0.21943670     1.08600
C174        C  0.42928089  0.40972656  0.28191130     1.08600
C175        C  0.33856655  0.42824883  0.29718386    -0.27200
C176        C  0.34066073  0.45320735  0.31960446    -0.15300
C177        C  0.37235603  0.46473550  0.32905037     0.35300
C178        C  0.40102349  0.45184291  0.31503378    -0.26700
C179        C  0.39896797  0.42632070  0.29316810    -0.15900
C180        C  0.36715690  0.41451602  0.28409849     0.36400
N181        N  0.36361516  0.38864702  0.26124372    -0.90200
H182        H  0.31464917  0.41850632  0.29057623     0.17500
H183        H  0.42496352  0.46064245  0.32276987     0.17500
N184        N  0.37577044  0.48847441  0.35416754    -0.89200
H185        H  0.34997626  0.39665471  0.24105080     0.34900
H186        H  0.35005253  0.37032265  0.27275051     0.40000
H187        H  0.39005151  0.50733854  0.34467512     0.39600
H188        H  0.38887742  0.47830691  0.37373671     0.34500
C189        C  0.15164030  0.42830196  0.30064826    -0.27200
C190        C  0.14843323  0.45488223  0.32090305    -0.15300
C191        C  0.11587017  0.46459583  0.33043381     0.35300
C192        C  0.08825738  0.45004962  0.31636182    -0.26700
C193        C  0.09155574  0.42218422  0.29800578    -0.15900
C194        C  0.12388862  0.41044358  0.29147881     0.36400
N195        N  0.12903318  0.37888537  0.27880463    -0.90200
H196        H  0.17597559  0.41888941  0.29537520     0.17500
H197        H  0.06388103  0.45813451  0.32349077     0.17500
N198        N  0.10938730  0.48650800  0.35673477    -0.89200
H199        H  0.13918246  0.36501986  0.29775300     0.34900
H200        H  0.14692748  0.38020426  0.26027957     0.40000
H201        H  0.12205218  0.50787613  0.35287281     0.39600
H202        H  0.16096656  0.96950777  0.24486241     0.34500
C203        C  0.35467395  0.07047558  0.32960515    -0.27200
C204        C  0.33842093  0.04784579  0.31026896    -0.15300
C205        C  0.35510386  0.03457393  0.28311669     0.35300
C206        C  0.38819308  0.04404090  0.27652087    -0.26700
C207        C  0.40413848  0.06662754  0.29656522    -0.15900
C208        C  0.38708926  0.07866770  0.32414518     0.36400
N209        N  0.40185725  0.09991597  0.34724219    -0.90200
H210        H  0.34267829  0.08037070  0.35118251     0.17500
H211        H  0.40116500  0.03442292  0.25547250     0.17500
N212        N  0.33889127  0.01153595  0.26278893    -0.89200
H213        H  0.40313180  0.12249728  0.33629119     0.34900
H214        H  0.42525514  0.09138388  0.35338906     0.40000
H215        H  0.35414267  0.00652332  0.24266433     0.39600
H216        H  0.31788669  0.02234237  0.25297559     0.34500
C217        C  0.15248136  0.06282620  0.28979243    -0.27200
C218        C  0.15009902  0.03997961  0.31505973    -0.15300
C219        C  0.11834859  0.02971146  0.32580027     0.35300
C220        C  0.08988804  0.04320135  0.31197040    -0.26700
C221        C  0.09234153  0.06803164  0.28877157    -0.15900
C222        C  0.12403964  0.07736981  0.27709168     0.36400
N223        N  0.12764169  0.10277551  0.25342430    -0.90200
H224        H  0.17653916  0.07115102  0.28151358     0.17500
H225        H  0.06590178  0.03609064  0.32154594     0.17500
N226        N  0.11479002  0.00654295  0.35183234    -0.89200
H227        H  0.14132534  0.09400865  0.23359728     0.34900
H228        H  0.14146803  0.12110605  0.26423620     0.40000
H229        H  0.10001007  0.98780533  0.34327252     0.39600
H230        H  0.10217049  0.01733725  0.37132210     0.34500
C231        C  0.39316769  0.44977446  0.21130977    -0.27200
C232        C  0.42048834  0.44136917  0.19228156    -0.15300
C233        C  0.41819591  0.44430298  0.15759539     0.35300
C234        C  0.38809827  0.45318355  0.14313789    -0.26700
C235        C  0.35966715  0.45754491  0.16263341    -0.15900
C236        C  0.36230767  0.45554401  0.19711087     0.36400
N237        N  0.33352858  0.45878527  0.21761233    -0.90200
H238        H  0.39541500  0.44974084  0.23747976     0.17500
H239        H  0.38652998  0.45514440  0.11652505     0.17500
N240        N  0.44565245  0.43750908  0.13650481    -0.89200
H241        H  0.34018987  0.45838543  0.24227949     0.34900
H242        H  0.31901398  0.43824999  0.21458833     0.40000
H243        H  0.45215737  0.41355686  0.13967570     0.39600
H244        H  0.46552454  0.45188302  0.14373262     0.34500
C245        C  0.13287216  0.39210956  0.19995995    -0.27200
C246        C  0.10680542  0.41280133  0.20885834    -0.15300
C247        C  0.11317506  0.44577651  0.20947184     0.35300
C248        C  0.14410583  0.45777385  0.19915071    -0.26700
C249        C  0.16955532  0.43719195  0.18928397    -0.15900
C250        C  0.16433092  0.40393250  0.19145247     0.36400
N251        N  0.19075449  0.38207738  0.18524799    -0.90200
H252        H  0.12918937  0.36637057  0.20025290     0.17500
H253        H  0.14805750  0.48344045  0.19809129     0.17500
N254        N  0.08885001  0.46700450  0.22202381    -0.89200
H255        H  0.19529162  0.36963768  0.20722557     0.34900
H256        H  0.18260066  0.36508288  0.16831125     0.40000
H257        H  0.08466366  0.48498234  0.20451123     0.39600
H258        H  0.09904941  0.47714273  0.24308246     0.34500
C259        C  0.37707640  0.03199522  0.16414141    -0.27200
C260        C  0.34526286  0.04339498  0.17274965    -0.15300
C261        C  0.34345981  0.06806750  0.19638239     0.35300
C262        C  0.37247987  0.08078749  0.20970581    -0.26700
C263        C  0.40412063  0.06989465  0.20045632    -0.15900
C264        C  0.40619874  0.04449228  0.17815624     0.36400
N265        N  0.43772136  0.03250734  0.16821368    -0.90200
H266        H  0.37979810  0.01433170  0.14507009     0.17500
H267        H  0.37016087  0.10030378  0.22704200     0.17500
N268        N  0.31286573  0.08233796  0.20599544    -0.89200
H269        H  0.43979625  0.03513463  0.14262161     0.34900
H270        H  0.43831114  0.00803563  0.17381505     0.40000
H271        H  0.29763621  0.06475273  0.21656891     0.39600
H272        H  0.30152617  0.09196498  0.18506909     0.34500
C273        C  0.14832437  0.09255341  0.16326672    -0.27200
C274        C  0.15535478  0.06001195  0.16654479    -0.15300
C275        C  0.13023256  0.03863526  0.17697864     0.35300
C276        C  0.09812864  0.04986458  0.18276028    -0.26700
C277        C  0.09094441  0.08236378  0.17946548    -0.15900
C278        C  0.11641509  0.10388184  0.16988093     0.36400
N279        N  0.11006092  0.13740594  0.16720911    -0.90200
H280        H  0.16739677  0.10910375  0.15498797     0.17500
H281        H  0.07915604  0.03351119  0.19167571     0.17500
N282        N  0.13783363  0.00565783  0.18280947    -0.89200
H283        H  0.11587480  0.14465435  0.14312446     0.34900
H284        H  0.12608624  0.14928237  0.18321901     0.40000
H285        H  0.11739922  0.99388148  0.19315469     0.39600
H286        H  0.15630278  0.00492509  0.20067048     0.34500
C287        C  0.28717310  0.37124322  0.08152478    -0.27200
C288        C  0.29985325  0.40047879  0.06927891    -0.15300
C289        C  0.31812607  0.40092451  0.03979900     0.35300
C290        C  0.32464861  0.37209451  0.02398245    -0.26700
C291        C  0.31320819  0.34270595  0.03705182    -0.15900
C292        C  0.29352930  0.34247880  0.06566431     0.36400
N293        N  0.28164207  0.31307230  0.07994437    -0.90200
H294        H  0.27233872  0.37048414  0.10382878     0.17500
H295        H  0.34023564  0.37277538  0.00225526     0.17500
N296        N  0.33096918  0.43030721  0.02637979    -0.89200
H297        H  0.25595328  0.31431783  0.08181285     0.34900
H298        H  0.29115712  0.31108629  0.10379973     0.40000
H299        H  0.32171941  0.43303549  0.00248865     0.39600
H300        H  0.35663802  0.42833620  0.02469191     0.34500
C301        C  0.34507017  0.14047432  0.08200978    -0.27200
C302        C  0.32241487  0.16493912  0.07405955    -0.15300
C303        C  0.28915679  0.16101522  0.08333135     0.35300
C304        C  0.27853015  0.13078133  0.09507988    -0.26700
C305        C  0.30062620  0.10482897  0.09696928    -0.15900
C306        C  0.33444371  0.11049418  0.09270561     0.36400
N307        N  0.35812499  0.08578186  0.09879946    -0.90200
H308        H  0.37134515  0.14367473  0.07793430     0.17500
H309        H  0.25269350  0.12705808  0.10097764     0.17500
N310        N  0.26634259  0.18701358  0.07985983    -0.89200
H311        H  0.37445908  0.09387001  0.11686488     0.34900
H312        H  0.37157678  0.08211744  0.07709454     0.40000
H313        H  0.27379460  0.20505723  0.09600086     0.39600
H314        H  0.24272821  0.17986130  0.08750848     0.34500
C315        C  0.33976271  0.36958665  0.43299881    -0.27200
C316        C  0.31812125  0.34671820  0.44695179    -0.15300
C317        C  0.28654186  0.35661596  0.45682530     0.35300
C318        C  0.27724189  0.38872111  0.45248881    -0.26700
C319        C  0.29751634  0.41086559  0.43592244    -0.15900
C320        C  0.32939603  0.40106546  0.42645857     0.36400
N321        N  0.35099482  0.42278467  0.40924559    -0.90200
H322        H  0.36473350  0.36283027  0.42653914     0.17500
H323        H  0.25346791  0.39613014  0.46092069     0.17500
N324        N  0.26347662  0.33452508  0.47117295    -0.89200
H325        H  0.35706459  0.41262065  0.38652220     0.34900
H326        H  0.37270662  0.42504424  0.42289018     0.40000
H327        H  0.27357616  0.32494066  0.49262960     0.39600
H328        H  0.26004137  0.31570344  0.45476222     0.34500
C329        C  0.30614489  0.15437939  0.41696326    -0.27200
C330        C  0.31223030  0.15554376  0.45067614    -0.15300
C331        C  0.31114545  0.12670756  0.46920626     0.35300
C332        C  0.30186704  0.09768707  0.45424220    -0.26700
C333        C  0.29566679  0.09635860  0.42033313    -0.15900
C334        C  0.29885064  0.12533760  0.40143770     0.36400
N335        N  0.29533200  0.12571256  0.36623436    -0.90200
H336        H  0.30904773  0.17591060  0.40207108     0.17500
H337        H  0.30036499  0.07605213  0.46910373     0.17500
N338        N  0.32050342  0.12662644  0.50315001    -0.89200
H339        H  0.31739093  0.13427693  0.35587188     0.34900
H340        H  0.27674101  0.14190193  0.36000174     0.40000
H341        H  0.34068942  0.11135199  0.50582373     0.39600
H342        H  0.30093535  0.12189146  0.02203602     0.34500
C343        C  0.39539474  0.31627735  0.37588729    -0.27200
C344        C  0.41678185  0.30255773  0.39895682    -0.15300
C345        C  0.44775466  0.29117235  0.38828067     0.35300
C346        C  0.45735836  0.29556762  0.35528800    -0.26700
C347        C  0.43737572  0.31246614  0.33315680    -0.15900
C348        C  0.40567921  0.32187682  0.34339487     0.36400
N349        N  0.38442373  0.33856761  0.32112522    -0.90200
H350        H  0.37070065  0.32315909  0.38323979     0.17500
H351        H  0.48100073  0.28678330  0.34717595     0.17500
N352        N  0.46943441  0.27445554  0.41014784    -0.89200
H353        H  0.37876624  0.36073088  0.33153001     0.34900
H354        H  0.36246979  0.32544117  0.31917867     0.40000
H355        H  0.45726483  0.25415741  0.41915658     0.39600
H356        H  0.47407036  0.28911885  0.43030991     0.34500
C357        C  0.46431323  0.30998957  0.12568167    -0.27200
C358        C  0.44675602  0.32839366  0.14854848    -0.15300
C359        C  0.41619975  0.34137112  0.13919991     0.35300
C360        C  0.40404917  0.33612580  0.10742399    -0.26700
C361        C  0.42202256  0.31834675  0.08414707    -0.15900
C362        C  0.45316828  0.30632156  0.09316223     0.36400
N363        N  0.47375443  0.29010786  0.06995602    -0.90200
H364        H  0.48652983  0.29807770  0.13315592     0.17500
H365        H  0.37964358  0.34487063  0.10133673     0.17500
N366        N  0.39679792  0.35892371  0.16242016    -0.89200
H367        H  0.47767334  0.30534035  0.04973401     0.34900
H368        H  0.46149174  0.26979763  0.06154256     0.40000
H369        H  0.37425055  0.34694064  0.16553907     0.39600
H370        H  0.39187800  0.38142472  0.15219676     0.34500
C371        C  0.41303233  0.22116064  0.37659698    -0.27200
C372        C  0.41762228  0.20468771  0.40681006    -0.15300
C373        C  0.43082691  0.17394918  0.40645859     0.35300
C374        C  0.44087893  0.16088115  0.37653147    -0.26700
C375        C  0.43918177  0.17838464  0.34644791    -0.15900
C376        C  0.42408526  0.20846758  0.34654612     0.36400
N377        N  0.41823305  0.22525489  0.31624220    -0.90200
H378        H  0.39966855  0.24347693  0.37609942     0.17500
H379        H  0.45162191  0.13721712  0.37738522     0.17500
N380        N  0.43204414  0.15508690  0.43610048    -0.89200
H381        H  0.43008997  0.24746077  0.31734250     0.34900
H382        H  0.39286143  0.22924311  0.31425514     0.40000
H383        H  0.45642548  0.14790817  0.43974276     0.39600
H384        H  0.41769138  0.13449720  0.43260159     0.34500
C385        C  0.45237614  0.19390786  0.09588678    -0.27200
C386        C  0.43133051  0.22003104  0.09867835    -0.15300
C387        C  0.42309142  0.23144860  0.13062837     0.35300
C388        C  0.43521082  0.21600663  0.15883275    -0.26700
C389        C  0.45399981  0.18828211  0.15602045    -0.15900
C390        C  0.46317221  0.17750616  0.12401511     0.36400
N391        N  0.48293770  0.14943418  0.11975212    -0.90200
H392        H  0.45822555  0.18438381  0.07176879     0.17500
H393        H  0.42776236  0.22439392  0.18296801     0.17500
N394        N  0.40003484  0.25702526  0.13472346    -0.89200
H395        H  0.50394336  0.15569602  0.10605028     0.34900
H396        H  0.46934842  0.13290150  0.10601687     0.40000
H397        H  0.41060333  0.27390554  0.15036084     0.39600
H398        H  0.37922777  0.24777202  0.14690511     0.34500
C399        C  0.17572259  0.37007273  0.47471193    -0.27200
C400        C  0.18490704  0.34175222  0.45791129    -0.15300
C401        C  0.20078166  0.34507996  0.42721751     0.35300
C402        C  0.20887202  0.37572248  0.41529873    -0.26700
C403        C  0.20045527  0.40424171  0.43241231    -0.15900
C404        C  0.18384394  0.40093613  0.46280677     0.36400
N405        N  0.17378096  0.42820815  0.48143938    -0.90200
H406        H  0.16109181  0.36821241  0.49708666     0.17500
H407        H  0.22136857  0.37704710  0.39164315     0.17500
N408        N  0.20622049  0.31815397  0.40615004    -0.89200
H409        H  0.15852105  0.44232822  0.46662862     0.34900
H410        H  0.19480989  0.44156170  0.48735417     0.40000
H411        H  0.18337631  0.30754118  0.40107450     0.39600
H412        H  0.22064669  0.30132595  0.41850786     0.34500
C413        C  0.21959108  0.12070306  0.41386377    -0.27200
C414        C  0.21025908  0.09152685  0.42950436    -0.15300
C415        C  0.19301276  0.09315400  0.45961402     0.35300
C416        C  0.18328397  0.12313604  0.47148593    -0.26700
C417        C  0.19251678  0.15225223  0.45569901    -0.15900
C418        C  0.21148509  0.15075109  0.42691953     0.36400
N419        N  0.21936016  0.17945694  0.40893128    -0.90200
H420        H  0.23171579  0.12029224  0.39010380     0.17500
H421        H  0.16662541  0.12344803  0.49236102     0.17500
N422        N  0.18291407  0.06499191  0.47743097    -0.89200
H423        H  0.20895298  0.17771811  0.38545383     0.34900
H424        H  0.24494961  0.18078736  0.40610847     0.40000
H425        H  0.20401709  0.05205784  0.48372350     0.39600
H426        H  0.16809980  0.05096328  0.46213008     0.34500
C427        C  0.21155935  0.35525184  0.03214624    -0.27200
C428        C  0.19470829  0.33402371  0.05351886    -0.15300
C429        C  0.18623150  0.34510055  0.08523295     0.35300
C430        C  0.19246811  0.37674112  0.09375202    -0.26700
C431        C  0.20777364  0.39845144  0.07203286    -0.15900
C432        C  0.21765101  0.38749294  0.04076518     0.36400
N433        N  0.23295749  0.40858772  0.01726682    -0.90200
H434        H  0.21813092  0.34723512  0.00798198     0.17500
H435        H  0.18470332  0.38488056  0.11774919     0.17500
N436        N  0.16997824  0.32510090  0.10912199    -0.89200
H437        H  0.25449429  0.41790385  0.02733805     0.34900
H438        H  0.21720042  0.42790755  0.01362832     0.40000
H439        H  0.18275903  0.30348689  0.11107043     0.39600
H440        H  0.14601150  0.32078740  0.10110118     0.34500
C441        C  0.16444630  0.12385350  0.05630153    -0.27200
C442        C  0.18615353  0.14713413  0.04256247    -0.15300
C443        C  0.21850148  0.13683103  0.03378148     0.35300
C444        C  0.22822516  0.10494540  0.04128423    -0.26700
C445        C  0.20629116  0.08260490  0.05564762    -0.15900
C446        C  0.17377863  0.09208238  0.06175007     0.36400
N447        N  0.15016452  0.06952514  0.07469635    -0.90200
H448        H  0.13931805  0.13013276  0.06274789     0.17500
H449        H  0.25331768  0.09761731  0.03658606     0.17500
N450        N  0.24189528  0.15722286  0.01699310    -0.89200
H451        H  0.13060331  0.06805686  0.05802979     0.34900
H452        H  0.14082085  0.07850412  0.09680030     0.40000
H453        H  0.23213324  0.17967735  0.01179426     0.39600
H454        H  0.24712710  0.14679019  0.99423412     0.34500
C455        C  0.08054645  0.27379903  0.37967724    -0.27200
C456        C  0.07196118  0.28721962  0.41043349    -0.15300
C457        C  0.04782283  0.31113505  0.41141915     0.35300
C458        C  0.03381023  0.32191170  0.38167658    -0.26700
C459        C  0.04298823  0.30910294  0.35070550    -0.15900
C460        C  0.06583021  0.28382383  0.35013460     0.36400
N461        N  0.07582350  0.26898026  0.32000401    -0.90200
H462        H  0.09973621  0.25591097  0.37839866     0.17500
H463        H  0.01603063  0.34117668  0.38264954     0.17500
N464        N  0.03956384  0.32619322  0.44213039    -0.89200
H465        H  0.08582286  0.28652962  0.30431648     0.34900
H466        H  0.05492557  0.25904368  0.30891456     0.40000
H467        H  0.02812455  0.30898829  0.45722237     0.39600
H468        H  0.02225488  0.34432596  0.43839959     0.34500
C469        C  0.09421550  0.28202928  0.13206722    -0.27200
C470        C  0.07982525  0.28881498  0.10108660    -0.15300
C471        C  0.05198837  0.30846061  0.09995777     0.35300
C472        C  0.03793744  0.31893361  0.12944344    -0.26700
C473        C  0.05022206  0.30939220  0.16045752    -0.15900
C474        C  0.07964025  0.29197056  0.16173657     0.36400
N475        N  0.09683253  0.28836243  0.19249207    -0.90200
H476        H  0.11791568  0.27032262  0.13319100     0.17500
H477        H  0.01827844  0.33631760  0.12798069     0.17500
N478        N  0.04009644  0.32068020  0.06914218    -0.89200
H479        H  0.11879775  0.27575945  0.18913979     0.34900
H480        H  0.08203142  0.27478242  0.20848590     0.40000
H481        H  0.01496849  0.31542063  0.06750713     0.39600
H482        H  0.04258719  0.34562264  0.06936426     0.34500
C483        C  0.09720928  0.18436039  0.38170716    -0.27200
C484        C  0.07740589  0.19860167  0.40618175    -0.15300
C485        C  0.04421874  0.20568812  0.39874830     0.35300
C486        C  0.03219645  0.19926478  0.36694323    -0.26700
C487        C  0.05190432  0.18390772  0.34329853    -0.15900
C488        C  0.08479428  0.17701407  0.35071837     0.36400
N489        N  0.10548467  0.16157390  0.32693977    -0.90200
H490        H  0.12279332  0.17860050  0.38662872     0.17500
H491        H  0.00726368  0.20569298  0.36090675     0.17500
N492        N  0.02232453  0.21904967  0.42273117    -0.89200
H493        H  0.11376750  0.14002576  0.33718664     0.34900
H494        H  0.12604325  0.17627165  0.32252881     0.40000
H495        H  0.03190149  0.24087634  0.43065143     0.39600
H496        H  0.49754744  0.21367956  0.43393217     0.34500
C497        C  0.02751346  0.18078239  0.12668301    -0.27200
C498        C  0.04265063  0.18628485  0.15732358    -0.15300
C499        C  0.07368569  0.20141461  0.15756533     0.35300
C500        C  0.08934378  0.20865772  0.12743054    -0.26700
C501        C  0.07375278  0.20383204  0.09675144    -0.15900
C502        C  0.04197489  0.19046637  0.09666097     0.36400
N503        N  0.02529023  0.18443921  0.06625239    -0.90200
H504        H  0.00549009  0.16681835  0.12568557     0.17500
H505        H  0.11459977  0.21710831  0.12807306     0.17500
N506        N  0.09099610  0.20568277  0.18810484    -0.89200
H507        H  0.00267593  0.19636465  0.06692550     0.34900
H508        H  0.02041682  0.15986212  0.06484232     0.40000
H509        H  0.07744290  0.22161630  0.20241560     0.39600
H510        H  0.11412158  0.21623858  0.18397291     0.34500
O511        O  0.08246604  0.20711224  0.53804973    -0.81000
O512        O  0.07863331  0.28277330  0.96958581    -0.81100
O513        O  0.12521450  0.26761971  0.57502646    -0.81100
O514        O  0.12185517  0.22142847  0.93059686    -0.81000
O515        O  0.08202239  0.27121803  0.54204816    -0.81100
O516        O  0.07940966  0.21813897  0.96468432    -0.81100
O517        O  0.12027186  0.28195459  0.93404936    -0.81000
O518        O  0.12633105  0.20757429  0.57018468    -0.81100
C519        C  0.09559406  0.20321918  0.56642596     1.08600
C520        C  0.08966766  0.28562872  0.93991557     1.08500
C521        C  0.09459742  0.27268131  0.57088495     1.08700
C522        C  0.09128150  0.21661570  0.93547423     1.08500
O523        O  0.13941554  0.18233629  0.96676165    -0.81100
O524        O  0.14164028  0.30810679  0.53771092    -0.81100
O525        O  0.18729197  0.20446850  0.53509240    -0.81100
O526        O  0.18235013  0.28770818  0.96642903    -0.81000
O527        O  0.13828286  0.31776857  0.97395522    -0.81100
O528        O  0.14357312  0.17304540  0.52942781    -0.81100
O529        O  0.18325843  0.21439025  0.96390065    -0.81000
O530        O  0.18592935  0.27716838  0.53850714    -0.81100
Co531      Co  0.11265765  0.19684094  0.50041740     1.51500
Co532      Co  0.11137790  0.29289661  0.00538003     1.51700
Co533      Co  0.15630276  0.23970202  0.54955802     1.51600
Co534      Co  0.15241920  0.25099741  0.95363476     1.51500
O535        O  0.13413075  0.24257329  0.50273370    -1.43000
C536        C  0.17017812  0.18621835  0.96228772     1.08600
C537        C  0.17223881  0.30441482  0.54315589     1.08700
C538        C  0.17396240  0.17643674  0.53638421     1.08600
C539        C  0.16822627  0.31526489  0.96593383     1.08600
O540        O  0.38045941  0.22868798  0.57673555    -0.81000
O541        O  0.37755008  0.27602153  0.93027246    -0.81100
O542        O  0.41580344  0.21993252  0.96587297    -0.81100
O543        O  0.41562642  0.29564220  0.52876938    -0.81000
O544        O  0.37281677  0.22644352  0.93235699    -0.81100
O545        O  0.37520901  0.29012928  0.56590696    -0.81100
O546        O  0.41348891  0.30837861  0.95651001    -0.81000
O547        O  0.42028393  0.22157967  0.53933173    -0.81100
C548        C  0.41052985  0.22386511  0.56955299     1.08600
C549        C  0.40205510  0.29616525  0.92983630     1.08500
C550        C  0.40257075  0.21828229  0.93704059     1.08700
C551        C  0.40371111  0.29988148  0.55766513     1.08500
O552        O  0.31590032  0.28284297  0.53287042    -0.81100
O553        O  0.31695267  0.21342922  0.96047144    -0.81100
O554        O  0.36285244  0.18464499  0.54207462    -0.81100
O555        O  0.35674180  0.31794241  0.97212252    -0.81000
O556        O  0.31678286  0.28864639  0.95038950    -0.81100
O557        O  0.31848753  0.21457923  0.54831626    -0.81100
O558        O  0.35754972  0.31206686  0.51075332    -0.81000
O559        O  0.35819565  0.18288808  0.97882983    -0.81100
Co560      Co  0.34689097  0.25357963  0.55298281     1.51500
Co561      Co  0.34586737  0.25184780  0.96264122     1.51700
Co562      Co  0.38808292  0.20407868  0.50596587     1.51600
Co563      Co  0.38972569  0.28352594  0.98864147     1.51500
O564        O  0.36490582  0.24621580  0.50770343    -1.43000
C565        C  0.32943936  0.30985457  0.52684009     1.08600
C566        C  0.32975356  0.18595518  0.96608286     1.08700
C567        C  0.33370673  0.18819927  0.55276533     1.08600
C568        C  0.33021580  0.31604254  0.95445577     1.08600
O569        O  0.21578045  0.05244680  0.67686371    -0.81000
O570        O  0.30074432  0.45416877  0.66306522    -0.81100
O571        O  0.18719708  0.46000930  0.64145086    -0.81100
O572        O  0.32095121  0.01667494  0.62791694    -0.81000
O573        O  0.22583248  0.44898014  0.67860103    -0.81100
O574        O  0.28714166  0.03608362  0.66765503    -0.81100
O575        O  0.32667964  0.48128106  0.62200881    -0.81000
O576        O  0.18607823  0.02297637  0.64131475    -0.81100
C577        C  0.18776027  0.04361228  0.66510558     1.08600
C578        C  0.32725388  0.46287573  0.64826149     1.08500
C579        C  0.19584332  0.44913667  0.66958609     1.08700
C580        C  0.31620673  0.03150737  0.65562214     1.08500
O581        O  0.26029576  0.06629398  0.62526529    -0.81100
O582        O  0.23038349  0.42389247  0.61590436    -0.81100
O583        O  0.21090245  0.02368167  0.57319180    -0.81100
O584        O  0.29217091  0.45266980  0.57638599    -0.81000
O585        O  0.28269322  0.42219680  0.62047785    -0.81100
O586        O  0.22782754  0.05712528  0.61194770    -0.81100
O587        O  0.29932247  0.04591563  0.59289974    -0.81000
O588        O  0.21234609  0.45561331  0.57553442    -0.81100
Co589      Co  0.24178413  0.02658952  0.64912103     1.52700
Co590      Co  0.25708524  0.45476996  0.64196579     1.51700
Co591      Co  0.20438539  0.98977085  0.60786707     1.51600
Co592      Co  0.29262678  0.99839068  0.59068530     1.51500
O593        O  0.25325632  0.99359738  0.62054161    -1.43000
C594        C  0.28580300  0.06987255  0.60647607     1.08600
C595        C  0.21711416  0.42756523  0.58776067     1.08700
C596        C  0.21624341  0.05215446  0.58304213     1.08600
C597        C  0.29262717  0.42556676  0.59118315     1.08600
O598        O  0.17701222  0.03290622  0.86328779    -0.81000
O599        O  0.31465209  0.46989021  0.86465336    -0.81100
O600        O  0.28444255  0.03318854  0.82138175    -0.81100
O601        O  0.20778511  0.46895010  0.81947089    -0.81000
O602        O  0.31597021  0.02945363  0.86564372    -0.81100
O603        O  0.17467637  0.47395732  0.86270212    -0.81100
O604        O  0.28269579  0.46760716  0.82073095    -0.81000
O605        O  0.21096245  0.03395903  0.82040835    -0.81100
C606        C  0.18244402  0.03882638  0.83284572     1.08600
C607        C  0.31125406  0.46520191  0.83402940     1.08500
C608        C  0.31265425  0.03586383  0.83527677     1.08700
C609        C  0.17864887  0.46816105  0.83246796     1.08500
O610        O  0.20942018  0.46560590  0.92266462    -0.81100
O611        O  0.28133634  0.03828485  0.92564630    -0.81100
O612        O  0.21671660  0.06869205  0.88154882    -0.81100
O613        O  0.27437897  0.43346282  0.88251828    -0.81000
O614        O  0.27797428  0.46663889  0.92501986    -0.81100
O615        O  0.21300365  0.03669944  0.92499610    -0.81100
O616        O  0.21165477  0.43479022  0.87878403    -0.81000
O617        O  0.27819493  0.06814515  0.88076890    -0.81100
Co618      Co  0.19852254  0.00169020  0.89444202     1.51500
Co619      Co  0.29263011  0.00062118  0.89645548     1.51700
Co620      Co  0.24730412  0.04606379  0.85105317     1.51600
Co621      Co  0.24452239  0.45588214  0.85019562     1.51500
O622        O  0.24603183  0.00084291  0.87368117    -1.43000
C623        C  0.20687755  0.43778545  0.90932622     1.08600
C624        C  0.28486981  0.06560359  0.91104874     1.08700
C625        C  0.21294664  0.06496686  0.91240414     1.08600
C626        C  0.28074381  0.43848200  0.91284692     1.08600
O627        O  0.03146569  0.18291441  0.71790741    -0.81000
O628        O  0.45592464  0.17480504  0.78906652    -0.81100
O629        O  0.46928167  0.13777143  0.68168309    -0.81100
O630        O  0.01943603  0.14197997  0.82625979    -0.81000
O631        O  0.46126591  0.17808800  0.71582555    -0.81100
O632        O  0.02383400  0.18332411  0.79109750    -0.81100
O633        O  0.45949123  0.13201364  0.82051029    -0.81000
O634        O  0.02702513  0.14117490  0.68427929    -0.81100
C635        C  0.03586022  0.17018823  0.68949499     1.08600
C636        C  0.45241106  0.16130536  0.81725622     1.08500
C637        C  0.46280183  0.16702129  0.68636833     1.08700
C638        C  0.02470688  0.17179949  0.82043223     1.08500
O639        O  0.06316850  0.12793455  0.79084334    -0.81100
O640        O  0.42923516  0.11748022  0.71674040    -0.81100
O641        O  0.03834852  0.08432892  0.71197796    -0.81100
O642        O  0.46450469  0.07417265  0.78296847    -0.81000
O643        O  0.42624582  0.11168432  0.77870525    -0.81100
O644        O  0.06819318  0.12610292  0.72701553    -0.81100
O645        O  0.03412159  0.08365041  0.78789367    -0.81000
O646        O  0.46401603  0.07712321  0.71468810    -0.81100
Co647      Co  0.04188946  0.15480841  0.75675803     1.51500
Co648      Co  0.44786443  0.14598377  0.75055977     1.51700
Co649      Co  0.99977386  0.11275775  0.71415043     1.51600
Co650      Co  0.49563293  0.10733368  0.79931865     1.51500
O651        O  0.49630613  0.12896004  0.75252273    -1.43000
C652        C  0.06167434  0.09776073  0.79238436     1.08600
C653        C  0.43479275  0.08827903  0.71107878     1.08700
C654        C  0.06623727  0.09804621  0.71514165     1.08600
C655        C  0.43438145  0.08265573  0.78426998     1.08600
O656        O  0.03405824  0.35679087  0.68349606    -0.81000
O657        O  0.46027859  0.35918696  0.81315896    -0.81100
O658        O  0.02477327  0.31656583  0.79131731    -0.81100
O659        O  0.46565035  0.32495838  0.70479671    -0.81000
O660        O  0.02270124  0.35901970  0.82312080    -0.81100
O661        O  0.47592228  0.36756643  0.67447891    -0.81100
O662        O  0.45800486  0.32009333  0.77610843    -0.81000
O663        O  0.03099102  0.31453956  0.71702285    -0.81100
C664        C  0.03625309  0.32675008  0.68821540     1.08600
C665        C  0.45372703  0.33027677  0.80545794     1.08500
C666        C  0.02711716  0.32924823  0.81993884     1.08700
C667        C  0.46544431  0.33904859  0.67696565     1.08500
O668        O  0.47549973  0.42568884  0.71162459    -0.81100
O669        O  0.03219650  0.41673607  0.78621479    -0.81100
O670        O  0.07283798  0.36846769  0.72405038    -0.81100
O671        O  0.42560672  0.37979458  0.77229625    -0.81000
O672        O  0.45876596  0.42073453  0.77945475    -0.81100
O673        O  0.04670867  0.41422542  0.71989137    -0.81100
O674        O  0.43597867  0.38858693  0.71041978    -0.81000
O675        O  0.06432235  0.37383916  0.78617706    -0.81100
Co676      Co  0.00688242  0.39102177  0.70362577     1.51500
Co677      Co  0.99412106  0.38801376  0.79692675     1.51700
Co678      Co  0.04325340  0.34371049  0.75435461     1.51600
Co679      Co  0.45112095  0.35318496  0.74129367     1.51500
O680        O  0.99857077  0.36861988  0.74951392    -1.43000
C681        C  0.44588483  0.41731804  0.70526120     1.08600
C682        C  0.06087972  0.40398468  0.78850149     1.08700
C683        C  0.07335612  0.39817585  0.71772246     1.08600
C684        C  0.42957905  0.40882726  0.77950563     1.08600
C685        C  0.33890915  0.42984590  0.79347462    -0.27200
C686        C  0.34130133  0.45480360  0.81602006    -0.15300
C687        C  0.37320214  0.46562598  0.82554376     0.35300
C688        C  0.40170782  0.45184681  0.81195409    -0.26700
C689        C  0.39935200  0.42620744  0.79019861    -0.15900
C690        C  0.36736475  0.41527885  0.78076215     0.36400
N691        N  0.36349379  0.38932817  0.75809598    -0.90200
H692        H  0.31483841  0.42067166  0.78660860     0.17500
H693        H  0.42576527  0.46016282  0.81988244     0.17500
N694        N  0.37698829  0.48970233  0.85022409    -0.89200
H695        H  0.35022900  0.39756529  0.73772200     0.34900
H696        H  0.34942239  0.37137858  0.76963461     0.40000
H697        H  0.39219702  0.50775115  0.84052934     0.39600
H698        H  0.38943493  0.47947199  0.87018922     0.34500
C699        C  0.15130558  0.42913552  0.79622712    -0.27200
C700        C  0.14853204  0.45638459  0.81569635    -0.15300
C701        C  0.11610540  0.46616274  0.82575409     0.35300
C702        C  0.08826524  0.45128416  0.81267952    -0.26700
C703        C  0.09113540  0.42299825  0.79504183    -0.15900
C704        C  0.12326441  0.41097134  0.78826306     0.36400
N705        N  0.12789863  0.37904972  0.77639089    -0.90200
H706        H  0.17552980  0.41957169  0.79076284     0.17500
H707        H  0.06404860  0.45955458  0.82013231     0.17500
N708        N  0.10996536  0.48828565  0.85196029    -0.89200
H709        H  0.13857473  0.36568301  0.79541902     0.34900
H710        H  0.14521577  0.37978077  0.75730283     0.40000
H711        H  0.12258180  0.50962707  0.84788638     0.39600
H712        H  0.09802957  0.00996967  0.83868597     0.34500
C713        C  0.36638333  0.06227707  0.84063211    -0.27200
C714        C  0.34323397  0.04793745  0.81944747    -0.15300
C715        C  0.35301361  0.04030578  0.78724448     0.35300
C716        C  0.38575612  0.04656022  0.77717906    -0.26700
C717        C  0.40837579  0.06182557  0.79826006    -0.15900
C718        C  0.39881385  0.06775117  0.83102112     0.36400
N719        N  0.42152923  0.07872983  0.85558100    -0.90200
H720        H  0.35977674  0.06794637  0.86587636     0.17500
H721        H  0.39332672  0.04005375  0.75270209     0.17500
N722        N  0.33006571  0.02699221  0.76440135    -0.89200
H723        H  0.41460506  0.10191780  0.86195789     0.34900
H724        H  0.44576545  0.07916087  0.84676975     0.40000
H725        H  0.31069606  0.04317922  0.76177845     0.39600
H726        H  0.32016208  0.00606751  0.77478014     0.34500
C727        C  0.13491095  0.04036811  0.79303446    -0.27200
C728        C  0.15595412  0.05614395  0.81530112    -0.15300
C729        C  0.14583719  0.08556873  0.82864071     0.35300
C730        C  0.11470859  0.09768122  0.82146989    -0.26700
C731        C  0.09276207  0.08125448  0.80089357    -0.15900
C732        C  0.10299685  0.05249845  0.78637530     0.36400
N733        N  0.08078801  0.03538539  0.76561273    -0.90200
H734        H  0.14220296  0.01764381  0.78268934     0.17500
H735        H  0.10754811  0.12018150  0.83253149     0.17500
N736        N  0.16695617  0.10299545  0.85043605    -0.89200
H737        H  0.07574702  0.01330282  0.77684753     0.34900
H738        H  0.09273180  0.03149577  0.74318037     0.40000
H739        H  0.15461164  0.10572850  0.87294630     0.39600
H740        H  0.17103297  0.12579871  0.84032451     0.34500
C741        C  0.39665894  0.45084754  0.70942188    -0.27200
C742        C  0.42185366  0.43901173  0.68950205    -0.15300
C743        C  0.41703554  0.43870930  0.65496930     0.35300
C744        C  0.38629256  0.44728281  0.64185425    -0.26700
C745        C  0.35968883  0.45493701  0.66267768    -0.15900
C746        C  0.36514376  0.45714982  0.69677119     0.36400
N747        N  0.33882875  0.46604977  0.71850766    -0.90200
H748        H  0.40111471  0.45348338  0.73529404     0.17500
H749        H  0.38274738  0.44656712  0.61538453     0.17500
N750        N  0.44260343  0.42911478  0.63274486    -0.89200
H751        H  0.34807729  0.46807628  0.74228116     0.34900
H752        H  0.32195938  0.44703365  0.71948256     0.40000
H753        H  0.44826511  0.40520489  0.63740965     0.39600
H754        H  0.46353798  0.44312392  0.63733247     0.34500
C755        C  0.13075459  0.39100963  0.69679104    -0.27200
C756        C  0.10564610  0.41203115  0.70729636    -0.15300
C757        C  0.11311392  0.44471438  0.71008223     0.35300
C758        C  0.14448632  0.45617946  0.70083676    -0.26700
C759        C  0.16911542  0.43531787  0.68977333    -0.15900
C760        C  0.16260215  0.40223304  0.68919724     0.36400
N761        N  0.18815023  0.37999930  0.68102560    -0.90200
H762        H  0.12600179  0.36548683  0.69520975     0.17500
H763        H  0.14931410  0.48173684  0.70125464     0.17500
N764        N  0.08931986  0.46619318  0.72327962    -0.89200
H765        H  0.19187171  0.36530429  0.70165532     0.34900
H766        H  0.17965949  0.36517802  0.66221976     0.40000
H767        H  0.08551936  0.48457268  0.70611888     0.39600
H768        H  0.09974658  0.47593120  0.74446439     0.34500
C769        C  0.37786978  0.03238712  0.66349653    -0.27200
C770        C  0.34632044  0.04415180  0.67247881    -0.15300
C771        C  0.34497034  0.07011141  0.69451936     0.35300
C772        C  0.37411295  0.08238262  0.70764611    -0.26700
C773        C  0.40551145  0.07009278  0.69933374    -0.15900
C774        C  0.40721881  0.04461395  0.67718419     0.36400
N775        N  0.43855683  0.03228044  0.66714356    -0.90200
H776        H  0.38014058  0.01439923  0.64468039     0.17500
H777        H  0.37203795  0.10243630  0.72435432     0.17500
N778        N  0.31487675  0.08639662  0.70217683    -0.89200
H779        H  0.44049108  0.03471640  0.64152324     0.34900
H780        H  0.43898448  0.00786089  0.67291700     0.40000
H781        H  0.29855937  0.07054554  0.71389837     0.39600
H782        H  0.30436211  0.09466137  0.68022508     0.34500
C783        C  0.15743602  0.08089471  0.70166041    -0.27200
C784        C  0.15633176  0.05675789  0.67799470    -0.15300
C785        C  0.12506602  0.04561705  0.66694923     0.35300
C786        C  0.09602285  0.05903397  0.67957267    -0.26700
C787        C  0.09724853  0.08330144  0.70318192    -0.15900
C788        C  0.12848672  0.09418892  0.71432001     0.36400
N789        N  0.13121186  0.11862085  0.73882249    -0.90200
H790        H  0.18096497  0.08971134  0.71052611     0.17500
H791        H  0.07241011  0.05057204  0.67056554     0.17500
N792        N  0.12243570  0.02092925  0.64267121    -0.89200
H793        H  0.14498009  0.13761825  0.72882636     0.34900
H794        H  0.14465253  0.10932630  0.75858553     0.40000
H795        H  0.10921562  0.02997288  0.62261140     0.39600
H796        H  0.10885676  0.00187682  0.65276128     0.34500
C797        C  0.28674614  0.36743015  0.58339328    -0.27200
C798        C  0.30159728  0.39650457  0.57354087    -0.15300
C799        C  0.32381674  0.39713536  0.54694774     0.35300
C800        C  0.33051217  0.36879819  0.53035360    -0.26700
C801        C  0.31599796  0.33954866  0.54040254    -0.15900
C802        C  0.29365387  0.33901526  0.56705019     0.36400
N803        N  0.27904649  0.30964185  0.57861973    -0.90200
H804        H  0.26938406  0.36667256  0.60380696     0.17500
H805        H  0.34826012  0.36969771  0.51031469     0.17500
N806        N  0.34047876  0.42614700  0.53745427    -0.89200
H807        H  0.25340577  0.31196046  0.57789741     0.34900
H808        H  0.28588600  0.30624021  0.60322752     0.40000
H809        H  0.33518023  0.43077705  0.51265927     0.39600
H810        H  0.36588851  0.42238087  0.53947451     0.34500
C811        C  0.34258406  0.13478278  0.57697765    -0.27200
C812        C  0.32087021  0.16076563  0.57242892    -0.15300
C813        C  0.28917515  0.15888804  0.58657192     0.35300
C814        C  0.27810948  0.12932612  0.59978283    -0.26700
C815        C  0.29868705  0.10215316  0.59911260    -0.15900
C816        C  0.33185821  0.10581794  0.58995478     0.36400
N817        N  0.35486126  0.08003548  0.59346961    -0.90200
H818        H  0.36817204  0.13607455  0.56917137     0.17500
H819        H  0.25306893  0.12729314  0.60908119     0.17500
N820        N  0.26871019  0.18669025  0.58815397    -0.89200
H821        H  0.37400437  0.08766328  0.60880450     0.34900
H822        H  0.36488440  0.07512561  0.57024802     0.40000
H823        H  0.26372431  0.19120559  0.61300371     0.39600
H824        H  0.24625909  0.18163944  0.57678572     0.34500
C825        C  0.33754549  0.36938986  0.92841463    -0.27200
C826        C  0.31604869  0.34688731  0.94314745    -0.15300
C827        C  0.28438667  0.35695660  0.95266770     0.35300
C828        C  0.27506738  0.38909126  0.94778161    -0.26700
C829        C  0.29551801  0.41094067  0.93076163    -0.15900
C830        C  0.32727810  0.40076410  0.92132956     0.36400
N831        N  0.34902390  0.42214101  0.90384001    -0.90200
H832        H  0.36249806  0.36247887  0.92204176     0.17500
H833        H  0.25132377  0.39669085  0.95638012     0.17500
N834        N  0.26139224  0.33500446  0.96735878    -0.89200
H835        H  0.35506281  0.41165843  0.88126672     0.34900
H836        H  0.37072668  0.42448250  0.91748640     0.40000
H837        H  0.27135026  0.32597005  0.98914196     0.39600
H838        H  0.25829400  0.31578779  0.95135480     0.34500
C839        C  0.31058174  0.15327302  0.92020284    -0.27200
C840        C  0.31451772  0.15614556  0.95400867    -0.15300
C841        C  0.31203527  0.12830911  0.97401037     0.35300
C842        C  0.30176431  0.09885743  0.96042169    -0.26700
C843        C  0.29707263  0.09602774  0.92637292    -0.15900
C844        C  0.30357046  0.12365194  0.90603982     0.36400
N845        N  0.30385875  0.12198222  0.87068845    -0.90200
H846        H  0.31524413  0.17381632  0.90427127     0.17500
H847        H  0.29838454  0.07814930  0.97636144     0.17500
N848        N  0.32104147  0.12968453  0.00796499    -0.89200
H849        H  0.32725986  0.12896493  0.86222097     0.34900
H850        H  0.28663313  0.13828452  0.86148165     0.40000
H851        H  0.34033617  0.11358892  0.01184414     0.39600
H852        H  0.30101900  0.11696671  0.51699931     0.34500
C853        C  0.39433587  0.31488118  0.87274685    -0.27200
C854        C  0.41589604  0.30393087  0.89727102    -0.15300
C855        C  0.44751375  0.29318549  0.88818284     0.35300
C856        C  0.45794722  0.29651829  0.85518638    -0.26700
C857        C  0.43783171  0.31122986  0.83161533    -0.15900
C858        C  0.40516784  0.31880126  0.84013177     0.36400
N859        N  0.38331792  0.33161028  0.81580254    -0.90200
H860        H  0.36902311  0.32063164  0.87898459     0.17500
H861        H  0.48201520  0.28825528  0.84791167     0.17500
N862        N  0.46789040  0.27709440  0.91191202    -0.89200
H863        H  0.37518361  0.35391197  0.82401410     0.34900
H864        H  0.36279132  0.31639438  0.81434171     0.40000
H865        H  0.47356504  0.29336505  0.93047994     0.39600
H866        H  0.49022784  0.27031262  0.90109403     0.34500
C867        C  0.46648468  0.30880783  0.62418593    -0.27200
C868        C  0.44863702  0.32594860  0.64785661    -0.15300
C869        C  0.41710355  0.33739932  0.63975542     0.35300
C870        C  0.40421581  0.33179568  0.60838673    -0.26700
C871        C  0.42234199  0.31497989  0.58450042    -0.15900
C872        C  0.45441260  0.30478176  0.59193893     0.36400
N873        N  0.47391304  0.28922035  0.56720067    -0.90200
H874        H  0.48937457  0.29785217  0.63101765     0.17500
H875        H  0.37915113  0.33924875  0.60319400     0.17500
N876        N  0.39743292  0.35345424  0.66389320    -0.89200
H877        H  0.49771957  0.28563111  0.57603527     0.34900
H878        H  0.47677264  0.30532347  0.54751181     0.40000
H879        H  0.37580200  0.34009264  0.66758539     0.39600
H880        H  0.39070918  0.37572108  0.65420412     0.34500
C881        C  0.41526023  0.22185502  0.87690821    -0.27200
C882        C  0.41997218  0.20628207  0.90758457    -0.15300
C883        C  0.43305163  0.17537879  0.90785116     0.35300
C884        C  0.44265462  0.16126993  0.87811274    -0.26700
C885        C  0.44005223  0.17761940  0.84746304    -0.15900
C886        C  0.42554730  0.20804906  0.84703987     0.36400
N887        N  0.41963325  0.22422265  0.81639552    -0.90200
H888        H  0.40199412  0.24418872  0.87586139     0.17500
H889        H  0.45371796  0.13777494  0.87946838     0.17500
N890        N  0.43438856  0.15730562  0.93799180    -0.89200
H891        H  0.43210499  0.24615389  0.81675272     0.34900
H892        H  0.39434899  0.22879378  0.81467702     0.40000
H893        H  0.45867447  0.14979568  0.94151486     0.39600
H894        H  0.41965315  0.13685436  0.93525380     0.34500
C895        C  0.45279624  0.19005904  0.59586056    -0.27200
C896        C  0.43164716  0.21613818  0.59816075    -0.15300
C897        C  0.42380328  0.22831551  0.62991885     0.35300
C898        C  0.43626883  0.21362251  0.65844270    -0.26700
C899        C  0.45522592  0.18596805  0.65621788    -0.15900
C900        C  0.46419662  0.17454961  0.62431885     0.36400
N901        N  0.48436870  0.14668527  0.62048264    -0.90200
H902        H  0.45840447  0.17995127  0.57194242     0.17500
H903        H  0.42901162  0.22256916  0.68241534     0.17500
N904        N  0.40086407  0.25402599  0.63357081    -0.89200
H905        H  0.50510598  0.15295920  0.60637759     0.34900
H906        H  0.47088762  0.12961943  0.60733665     0.40000
H907        H  0.41178024  0.27130303  0.64849532     0.39600
H908        H  0.38023980  0.24518303  0.64636846     0.34500
C909        C  0.17276883  0.37451517  0.96909173    -0.27200
C910        C  0.18301990  0.34573338  0.95372950    -0.15300
C911        C  0.19890835  0.34797707  0.92298958     0.35300
C912        C  0.20735243  0.37817488  0.91033019    -0.26700
C913        C  0.19837870  0.40707323  0.92639033    -0.15900
C914        C  0.17964424  0.40485813  0.95551790     0.36400
N915        N  0.16491947  0.43247259  0.97019217    -0.90200
H916        H  0.15777937  0.37332837  0.99128955     0.17500
H917        H  0.22048759  0.37885656  0.88699484     0.17500
N918        N  0.20388688  0.32046040  0.90262933    -0.89200
H919        H  0.14953917  0.44316214  0.95269521     0.34900
H920        H  0.18339548  0.44894276  0.97610229     0.40000
H921        H  0.18087471  0.31000024  0.89796470     0.39600
H922        H  0.21816975  0.30376597  0.91532524     0.34500
C923        C  0.22125564  0.12388224  0.91818775    -0.27200
C924        C  0.20787748  0.09501084  0.93136334    -0.15300
C925        C  0.18527511  0.09704684  0.95760746     0.35300
C926        C  0.17520413  0.12720627  0.96837308    -0.26700
C927        C  0.18807870  0.15609125  0.95482183    -0.15900
C928        C  0.21189164  0.15416669  0.92988317     0.36400
N929        N  0.22416132  0.18270724  0.91421707    -0.90200
H930        H  0.23743397  0.12309942  0.89695919     0.17500
H931        H  0.15550597  0.12792121  0.98644682     0.17500
N932        N  0.16999751  0.06920805  0.97196199    -0.89200
H933        H  0.21851586  0.18156610  0.88911001     0.34900
H934        H  0.24981444  0.18305639  0.91651330     0.40000
H935        H  0.18848052  0.05466948  0.98179774     0.39600
H936        H  0.15768387  0.05664027  0.95345960     0.34500
C937        C  0.21148569  0.35067999  0.53770961    -0.27200
C938        C  0.18911577  0.33291856  0.55709869    -0.15300
C939        C  0.17531845  0.34778277  0.58519580     0.35300
C940        C  0.18304819  0.37955908  0.59231275    -0.26700
C941        C  0.20471571  0.39766067  0.57261424    -0.15900
C942        C  0.21888702  0.38311679  0.54458848     0.36400
N943        N  0.23966367  0.40062992  0.52205208    -0.90200
H944        H  0.22139468  0.33989792  0.51582880     0.17500
H945        H  0.17188569  0.39052197  0.61371323     0.17500
N946        N  0.15311204  0.33123039  0.60709034    -0.89200
H947        H  0.26227580  0.38897157  0.52073765     0.34900
H948        H  0.24417602  0.42391157  0.53012621     0.40000
H949        H  0.16392648  0.30964208  0.61436768     0.39600
H950        H  0.13112480  0.32654927  0.59474867     0.34500
C951        C  0.16804437  0.12613834  0.56716010    -0.27200
C952        C  0.18966837  0.14624063  0.54903151    -0.15300
C953        C  0.22027759  0.13307697  0.53854922     0.35300
C954        C  0.22804356  0.10088044  0.54717701    -0.26700
C955        C  0.20555203  0.08118959  0.56476614    -0.15900
C956        C  0.17521902  0.09421900  0.57421136     0.36400
N957        N  0.15168080  0.07518868  0.59222350    -0.90200
H958        H  0.14427900  0.13500026  0.57525139     0.17500
H959        H  0.25203762  0.09143291  0.54078065     0.17500
N960        N  0.24377151  0.15113777  0.51924801    -0.89200
H961        H  0.12985237  0.07440418  0.57858437     0.34900
H962        H  0.14660369  0.08689386  0.61436100     0.40000
H963        H  0.23519176  0.17407271  0.51391383     0.39600
H964        H  0.24674212  0.13949866  0.49672246     0.34500
C965        C  0.08125403  0.28334834  0.87918922    -0.27200
C966        C  0.06899890  0.29285496  0.91031880    -0.15300
C967        C  0.04077691  0.31217149  0.91115036     0.35300
C968        C  0.02604417  0.32192590  0.88123154    -0.26700
C969        C  0.03837726  0.31205976  0.85016071    -0.15900
C970        C  0.06604715  0.29197979  0.84956306     0.36400
N971        N  0.08089367  0.28204143  0.81922422    -0.90200
H972        H  0.10403792  0.27008661  0.87758524     0.17500
H973        H  0.00545574  0.33835903  0.88224103     0.17500
N974        N  0.02855262  0.32396446  0.94191803    -0.89200
H975        H  0.08777536  0.30239063  0.80560635     0.34900
H976        H  0.06335106  0.26909630  0.80588693     0.40000
H977        H  0.00381331  0.31706524  0.94426974     0.39600
H978        H  0.02947418  0.34899327  0.94105726     0.34500
C979        C  0.08122445  0.26876957  0.63127937    -0.27200
C980        C  0.07546145  0.28306132  0.60011205    -0.15300
C981        C  0.05671703  0.31105475  0.59857125     0.35300
C982        C  0.04328283  0.32361499  0.62749182    -0.26700
C983        C  0.04760068  0.30872393  0.65867297    -0.15900
C984        C  0.06702674  0.28104851  0.66041097     0.36400
N985        N  0.07443382  0.26687088  0.69174357    -0.90200
H986        H  0.09770858  0.24854155  0.63318692     0.17500
H987        H  0.02945471  0.34567945  0.62538679     0.17500
N988        N  0.05357355  0.32836704  0.56809968    -0.89200
H989        H  0.10006701  0.26692383  0.69460850     0.34900
H990        H  0.06637419  0.24309186  0.69155554     0.40000
H991        H  0.02849304  0.33167854  0.56342525     0.39600
H992        H  0.06428807  0.35099818  0.57113707     0.34500
C993        C  0.08800021  0.20813344  0.87507015    -0.27200
C994        C  0.07155323  0.20871523  0.90590577    -0.15300
C995        C  0.03802761  0.20030384  0.90728393     0.35300
C996        C  0.02193708  0.19129757  0.87818391    -0.26700
C997        C  0.03845476  0.19059012  0.84766795    -0.15900
C998        C  0.07176095  0.19951412  0.84619536     0.36400
N999        N  0.08995752  0.19717958  0.81590090    -0.90200
H1000       H  0.11409103  0.21368737  0.87313226     0.17500
H1001       H  0.99704207  0.18313245  0.87988289     0.17500
N1002       N  0.02089794  0.19866937  0.93823513    -0.89200
H1003       H  0.10913413  0.18087247  0.81943726     0.34900
H1004       H  0.10056270  0.21953242  0.81069721     0.40000
H1005       H  0.01276182  0.17510045  0.94184968     0.39600
H1006       H  0.49858790  0.22064384  0.93098963     0.34500
C1007       C  0.03459451  0.20293668  0.63776343    -0.27200
C1008       C  0.05275568  0.18642123  0.66180619    -0.15300
C1009       C  0.08451075  0.17568548  0.65388092     0.35300
C1010       C  0.09632287  0.17910832  0.62172122    -0.26700
C1011       C  0.07761117  0.19412152  0.59693295    -0.15900
C1012       C  0.04612679  0.20571824  0.60489872     0.36400
N1013       N  0.02660949  0.22115759  0.58013294    -0.90200
H1014       H  0.01140269  0.21344990  0.64450770     0.17500
H1015       H  0.12093896  0.17061249  0.61623836     0.17500
N1016       N  0.10460637  0.16089063  0.67867656    -0.89200
H1017       H  0.00421110  0.22813365  0.59042718     0.34900
H1018       H  0.02081954  0.20400041  0.56238496     0.40000
H1019       H  0.10955128  0.17819777  0.69653244     0.39600
H1020       H  0.12738763  0.15401475  0.66887438     0.34500
O1021       O  0.07655348  0.71268578  0.03436827    -0.81000
O1022       O  0.07786388  0.78165510  0.46691491    -0.81100
O1023       O  0.12291988  0.77140341  0.07233286    -0.81100
O1024       O  0.12179755  0.71925460  0.42920097    -0.81000
O1025       O  0.07937893  0.77677263  0.04020841    -0.81100
O1026       O  0.07806811  0.71638590  0.46159095    -0.81100
O1027       O  0.11975528  0.77974519  0.43155476    -0.81000
O1028       O  0.12046965  0.71176962  0.06657191    -0.81100
C1029       C  0.08961615  0.70818841  0.06268220     1.08600
C1030       C  0.08926908  0.78443265  0.43741186     1.08500
C1031       C  0.09250357  0.77756453  0.06874117     1.08700
C1032       C  0.09112109  0.71443847  0.43290600     1.08500
O1033       O  0.13825380  0.68039042  0.46625548    -0.81100
O1034       O  0.14090941  0.81145889  0.03558415    -0.81100
O1035       O  0.18124238  0.70626445  0.03101728    -0.81100
O1036       O  0.18143843  0.78501713  0.46620549    -0.81000
O1037       O  0.13779271  0.81586720  0.47161526    -0.81100
O1038       O  0.13650538  0.67631605  0.02598044    -0.81100
O1039       O  0.18192221  0.71276973  0.46420667    -0.81000
O1040       O  0.18340691  0.77814322  0.03490814    -0.81100
Co1041     Co  0.10680043  0.70192988  0.99677849     1.51500
Co1042     Co  0.10985704  0.79184510  0.50308528     1.51700
Co1043     Co  0.15205963  0.74243306  0.04616379     1.51600
Co1044     Co  0.15150046  0.74900885  0.45258457     1.51500
O1045       O  0.12960545  0.74700784  0.99979019    -1.43000
C1046       C  0.16908512  0.68457017  0.46241491     1.08600
C1047       C  0.17144556  0.80598830  0.04006864     1.08700
C1048       C  0.16712967  0.67866112  0.03246635     1.08600
C1049       C  0.16802424  0.81274548  0.46496349     1.08600
O1050       O  0.38241222  0.73012180  0.07673295    -0.81000
O1051       O  0.37709844  0.77413172  0.43025219    -0.81100
O1052       O  0.41625201  0.71790794  0.46680384    -0.81100
O1053       O  0.41898131  0.79595918  0.02609917    -0.81000
O1054       O  0.37329729  0.72497513  0.43349379    -0.81100
O1055       O  0.37874798  0.79153025  0.06367534    -0.81100
O1056       O  0.41425512  0.80520837  0.45621408    -0.81000
O1057       O  0.42197464  0.72048823  0.03977600    -0.81100
C1058       C  0.41220374  0.72365112  0.06986340     1.08600
C1059       C  0.40220804  0.79356586  0.42955128     1.08500
C1060       C  0.40311893  0.71698379  0.43799585     1.08700
C1061       C  0.40747434  0.80042117  0.05512068     1.08500
O1062       O  0.31887239  0.78417314  0.03125804    -0.81100
O1063       O  0.31684752  0.71251383  0.46070932    -0.81100
O1064       O  0.36330150  0.68533677  0.04311431    -0.81100
O1065       O  0.35842172  0.81580626  0.47386901    -0.81000
O1066       O  0.31752200  0.78766672  0.45234088    -0.81100
O1067       O  0.32019717  0.71711055  0.04824701    -0.81100
O1068       O  0.36039580  0.81303578  0.00863360    -0.81000
O1069       O  0.35780974  0.68125551  0.47863836    -0.81100
Co1070     Co  0.34953176  0.75526694  0.05211929     1.51500
Co1071     Co  0.34620631  0.75026856  0.46370616     1.51700
Co1072     Co  0.38937894  0.70362075  0.00664500     1.51600
Co1073     Co  0.39085697  0.78045548  0.48884047     1.51500
O1074       O  0.36751585  0.74662555  0.00726664    -1.43000
C1075       C  0.33229024  0.81104528  0.02475359     1.08600
C1076       C  0.32946782  0.68488718  0.46566163     1.08700
C1077       C  0.33444101  0.69052144  0.05394536     1.08600
C1078       C  0.33166791  0.81468164  0.45653433     1.08600
O1079       O  0.21405282  0.55497073  0.17539701    -0.81000
O1080       O  0.30215911  0.95479186  0.15997345    -0.81100
O1081       O  0.19044049  0.96258512  0.13360053    -0.81100
O1082       O  0.31977852  0.52059407  0.12775810    -0.81000
O1083       O  0.22498146  0.94821135  0.17287668    -0.81100
O1084       O  0.28524629  0.53812948  0.16764084    -0.81100
O1085       O  0.32976429  0.98135528  0.11967977    -0.81000
O1086       O  0.18440279  0.52549582  0.13989106    -0.81100
C1087       C  0.18602530  0.54560635  0.16414459     1.08600
C1088       C  0.32933268  0.96286886  0.14587088     1.08500
C1089       C  0.19581790  0.94919157  0.16119063     1.08700
C1090       C  0.31463018  0.53381654  0.15626706     1.08500
O1091       O  0.25795708  0.56972857  0.12355748    -0.81100
O1092       O  0.23366711  0.92441102  0.11192232    -0.81100
O1093       O  0.20867357  0.52745547  0.07144101    -0.81100
O1094       O  0.29454673  0.95481645  0.07176195    -0.81000
O1095       O  0.28533033  0.92421246  0.11582860    -0.81100
O1096       O  0.22606411  0.56088646  0.11008776    -0.81100
O1097       O  0.29993749  0.55040218  0.09421000    -0.81000
O1098       O  0.21727700  0.95508063  0.06996074    -0.81100
Co1099     Co  0.24029814  0.52987131  0.14708759     1.52700
Co1100     Co  0.25896735  0.95586052  0.13811755     1.51700
Co1101     Co  0.20278635  0.49313188  0.10561156     1.51600
Co1102     Co  0.29239483  0.50303922  0.08908391     1.51500
O1103       O  0.25199438  0.49740133  0.11795344    -1.43000
C1104       C  0.28470602  0.57391446  0.10686632     1.08600
C1105       C  0.22096285  0.92735852  0.08349480     1.08700
C1106       C  0.21383332  0.55592349  0.08135600     1.08600
C1107       C  0.29498423  0.92765663  0.08640255     1.08600
O1108       O  0.17734161  0.53232334  0.36648462    -0.81000
O1109       O  0.31915875  0.96899097  0.36388514    -0.81100
O1110       O  0.28271602  0.52978300  0.31960836    -0.81100
O1111       O  0.21254444  0.96303851  0.31965774    -0.81000
O1112       O  0.31598699  0.52639742  0.36268688    -0.81100
O1113       O  0.17967535  0.96706969  0.36348583    -0.81100
O1114       O  0.28680347  0.96461144  0.32052382    -0.81000
O1115       O  0.20962881  0.53128948  0.32241508    -0.81100
C1116       C  0.18174322  0.53711513  0.33563362     1.08600
C1117       C  0.31546998  0.96308633  0.33361126     1.08500
C1118       C  0.31146620  0.53250680  0.33230890     1.08700
C1119       C  0.18387817  0.96047413  0.33316395     1.08500
O1120       O  0.21618079  0.96098637  0.42358071    -0.81100
O1121       O  0.28286460  0.53861187  0.42367509    -0.81100
O1122       O  0.21844032  0.56759571  0.38261286    -0.81100
O1123       O  0.28069177  0.93167963  0.38309425    -0.81000
O1124       O  0.28399450  0.96596358  0.42476599    -0.81100
O1125       O  0.21528263  0.53622243  0.42682553    -0.81100
O1126       O  0.21832624  0.92958582  0.38014985    -0.81000
O1127       O  0.28022430  0.56697012  0.37785689    -0.81100
Co1128     Co  0.19920887  0.50101573  0.39766604     1.51500
Co1129     Co  0.29314191  0.49969559  0.39623365     1.51700
Co1130     Co  0.24729555  0.54398901  0.35091288     1.51600
Co1131     Co  0.24963068  0.95197498  0.35061777     1.51500
O1132       O  0.24594504  0.49941267  0.37519581    -1.43000
C1133       C  0.21399298  0.93303261  0.41073950     1.08600
C1134       C  0.28635226  0.56546474  0.40827428     1.08700
C1135       C  0.21485261  0.56423543  0.41363554     1.08600
C1136       C  0.28742579  0.93765795  0.41312972     1.08600
O1137       O  0.02951436  0.68240647  0.21406364    -0.81000
O1138       O  0.45874748  0.67825218  0.28895810    -0.81100
O1139       O  0.46834663  0.63693977  0.18297267    -0.81100
O1140       O  0.02443426  0.64491341  0.32144160    -0.81000
O1141       O  0.46316765  0.67857628  0.21591015    -0.81100
O1142       O  0.02571605  0.68487975  0.28532816    -0.81100
O1143       O  0.46261479  0.63627503  0.32160263    -0.81000
O1144       O  0.02959300  0.63964099  0.18233163    -0.81100
C1145       C  0.03474353  0.66938798  0.18623976     1.08600
C1146       C  0.45607047  0.66551994  0.31763907     1.08500
C1147       C  0.46363968  0.66667862  0.18688152     1.08700
C1148       C  0.02902127  0.67453547  0.31464954     1.08500
O1149       O  0.06548675  0.62733618  0.28569750    -0.81100
O1150       O  0.42825522  0.61839411  0.21948250    -0.81100
O1151       O  0.03595309  0.58161975  0.21948493    -0.81100
O1152       O  0.46330959  0.57748840  0.28741587    -0.81000
O1153       O  0.42689420  0.61666546  0.28156655    -0.81100
O1154       O  0.06722545  0.62501910  0.22323658    -0.81100
O1155       O  0.03478756  0.58378240  0.28726860    -0.81000
O1156       O  0.46247809  0.57745217  0.21854573    -0.81100
Co1157     Co  0.04221612  0.65455286  0.25201640     1.51500
Co1158     Co  0.44904066  0.64830335  0.25163482     1.51700
Co1159     Co  0.99851807  0.60946646  0.20502932     1.51600
Co1160     Co  0.49696789  0.61019107  0.30085301     1.51500
O1161       O  0.49700375  0.62985965  0.25323422    -1.43000
C1162       C  0.06266680  0.59743108  0.29096352     1.08600
C1163       C  0.43333531  0.58879109  0.21484966     1.08700
C1164       C  0.06439822  0.59522755  0.21825570     1.08600
C1165       C  0.43357424  0.58770985  0.28861634     1.08600
O1166       O  0.03654312  0.86194305  0.18256870    -0.81000
O1167       O  0.46399215  0.85377839  0.31350896    -0.81100
O1168       O  0.02695237  0.82181814  0.28990798    -0.81100
O1169       O  0.46648338  0.82183025  0.20393397    -0.81000
O1170       O  0.02345408  0.86432256  0.32118689    -0.81100
O1171       O  0.47571800  0.86528726  0.17456620    -0.81100
O1172       O  0.46044844  0.81544696  0.27568288    -0.81000
O1173       O  0.03364534  0.81971159  0.21605253    -0.81100
C1174       C  0.03853654  0.83195116  0.18720930     1.08600
C1175       C  0.45694032  0.82506802  0.30539289     1.08500
C1176       C  0.02927108  0.83471400  0.31832837     1.08700
C1177       C  0.46586426  0.83657202  0.17643868     1.08500
O1178       O  0.47607900  0.92258361  0.21237120    -0.81100
O1179       O  0.03099511  0.92292839  0.28459981    -0.81100
O1180       O  0.07401690  0.87456754  0.22394104    -0.81100
O1181       O  0.42843289  0.87510665  0.27396543    -0.81000
O1182       O  0.46158733  0.91604700  0.28049130    -0.81100
O1183       O  0.04611193  0.91942830  0.21853758    -0.81100
O1184       O  0.43656893  0.88544366  0.21190492    -0.81000
O1185       O  0.06474224  0.88102311  0.28465959    -0.81100
Co1186     Co  0.00752542  0.89496316  0.20148671     1.51500
Co1187     Co  0.99391827  0.89232382  0.29455870     1.51700
Co1188     Co  0.04476966  0.84941495  0.25327912     1.51600
Co1189     Co  0.45278287  0.84925574  0.24158277     1.51500
O1190       O  0.99938371  0.87278680  0.24740246    -1.43000
C1191       C  0.44627105  0.91429253  0.20664935     1.08600
C1192       C  0.05977289  0.91094077  0.28848348     1.08700
C1193       C  0.07332465  0.90410814  0.21753125     1.08600
C1194       C  0.43253003  0.90408357  0.28119056     1.08600
C1195       C  0.34241694  0.92519546  0.29594864    -0.27200
C1196       C  0.34516274  0.95188787  0.31609696    -0.15300
C1197       C  0.37706601  0.96336522  0.32466636     0.35300
C1198       C  0.40540034  0.94848001  0.31212642    -0.26700
C1199       C  0.40264456  0.92144694  0.29224205    -0.15900
C1200       C  0.37056958  0.90995884  0.28381890     0.36400
N1201       N  0.36630231  0.88354610  0.26175166    -0.90200
H1202       H  0.31824453  0.91564913  0.28997972     0.17500
H1203       H  0.42955945  0.95733003  0.31910322     0.17500
N1204       N  0.38089584  0.98928593  0.34733116    -0.89200
H1205       H  0.35357125  0.89161707  0.24098181     0.34900
H1206       H  0.35142551  0.86629768  0.27337922     0.40000
H1207       H  0.39556863  0.00692174  0.33609300     0.39600
H1208       H  0.39373196  0.98072085  0.36786732     0.34500
C1209       C  0.13550359  0.92570225  0.33746141    -0.27200
C1210       C  0.15413144  0.94670995  0.31738318    -0.15300
C1211       C  0.13963548  0.95902566  0.28848334     0.35300
C1212       C  0.10674962  0.95024896  0.28045575    -0.26700
C1213       C  0.08847529  0.92912035  0.30090765    -0.15900
C1214       C  0.10308868  0.91743505  0.32989691     0.36400
N1215       N  0.08491503  0.89659558  0.35171798    -0.90200
H1216       H  0.14587030  0.91641621  0.36021058     0.17500
H1217       H  0.09597662  0.95911091  0.25780722     0.17500
N1218       N  0.15790457  0.98051425  0.26760733    -0.89200
H1219       H  0.08394172  0.90728361  0.37494449     0.34900
H1220       H  0.09784424  0.87509146  0.35400871     0.40000
H1221       H  0.14345664  0.00075232  0.26343683     0.39600
H1222       H  0.11671259  0.47626124  0.37908416     0.34500
C1223       C  0.35664408  0.57034822  0.33615009    -0.27200
C1224       C  0.34029978  0.54800450  0.31631643    -0.15300
C1225       C  0.35673944  0.53611032  0.28836502     0.35300
C1226       C  0.38968159  0.54602597  0.28172641    -0.26700
C1227       C  0.40543780  0.56889997  0.30155156    -0.15900
C1228       C  0.38835555  0.58079678  0.32927059     0.36400
N1229       N  0.40243278  0.60385072  0.35112935    -0.90200
H1230       H  0.34502000  0.57903493  0.35843416     0.17500
H1231       H  0.40259541  0.53677759  0.26046281     0.17500
N1232       N  0.34047786  0.51382256  0.26725173    -0.89200
H1233       H  0.40432939  0.62575313  0.33877340     0.34900
H1234       H  0.42573908  0.59596915  0.35845349     0.40000
H1235       H  0.35542184  0.50997453  0.24661263     0.39600
H1236       H  0.31914371  0.52476250  0.25836388     0.34500
C1237       C  0.13291696  0.53722111  0.29737159    -0.27200
C1238       C  0.15498030  0.55390743  0.31790597    -0.15300
C1239       C  0.14622888  0.58456202  0.32900310     0.35300
C1240       C  0.11544691  0.59729646  0.32114253    -0.26700
C1241       C  0.09272552  0.58033407  0.30188684    -0.15900
C1242       C  0.10138015  0.54988918  0.29028742     0.36400
N1243       N  0.07817366  0.53200579  0.27136259    -0.90200
H1244       H  0.13921111  0.51359074  0.28867966     0.17500
H1245       H  0.10922720  0.62069381  0.33044082     0.17500
N1246       N  0.16860093  0.60283450  0.34875318    -0.89200
H1247       H  0.07400406  0.51007346  0.28326866     0.34900
H1248       H  0.08881856  0.52792466  0.24837275     0.40000
H1249       H  0.15690774  0.60798097  0.37112821     0.39600
H1250       H  0.17343302  0.62452315  0.33654783     0.34500
C1251       C  0.39427102  0.94413513  0.21011865    -0.27200
C1252       C  0.42183781  0.93617306  0.19123759    -0.15300
C1253       C  0.41987134  0.94014781  0.15660688     0.35300
C1254       C  0.38989486  0.94969830  0.14209726    -0.26700
C1255       C  0.36121254  0.95389527  0.16140541    -0.15900
C1256       C  0.36359854  0.95071418  0.19580355     0.36400
N1257       N  0.33470588  0.95360499  0.21615435    -0.90200
H1258       H  0.39620268  0.94332796  0.23625166     0.17500
H1259       H  0.38864444  0.95244589  0.11553749     0.17500
N1260       N  0.44749374  0.93372072  0.13559123    -0.89200
H1261       H  0.34120666  0.95345703  0.24086114     0.34900
H1262       H  0.32043892  0.93293418  0.21286248     0.40000
H1263       H  0.45392540  0.90968958  0.13832744     0.39600
H1264       H  0.46734216  0.94787121  0.14331526     0.34500
C1265       C  0.13427636  0.90951120  0.22081312    -0.27200
C1266       C  0.10434545  0.91780776  0.20520587    -0.15300
C1267       C  0.10527976  0.93162395  0.17386426     0.35300
C1268       C  0.13561977  0.93923625  0.15968822    -0.26700
C1269       C  0.16576333  0.93493512  0.17679995    -0.15900
C1270       C  0.16503877  0.91824040  0.20700762     0.36400
N1271       N  0.19497830  0.90976816  0.22344524    -0.90200
H1272       H  0.13370998  0.89618296  0.24385908     0.17500
H1273       H  0.13495336  0.95000216  0.13531792     0.17500
N1274       N  0.07549714  0.93694757  0.15572890    -0.89200
H1275       H  0.19441574  0.91957241  0.24709460     0.34900
H1276       H  0.19537378  0.88483183  0.22604642     0.40000
H1277       H  0.07692746  0.92405882  0.13374893     0.39600
H1278       H  0.07431215  0.96131742  0.14972303     0.34500
C1279       C  0.37645487  0.53458147  0.16488471    -0.27200
C1280       C  0.34470913  0.54502800  0.17490937    -0.15300
C1281       C  0.34324396  0.56835698  0.20004198     0.35300
C1282       C  0.37246879  0.58030378  0.21384827    -0.26700
C1283       C  0.40399327  0.56994758  0.20364312    -0.15900
C1284       C  0.40576878  0.54641028  0.17921230     0.36400
N1285       N  0.43720588  0.53600256  0.16727085    -0.90200
H1286       H  0.37889523  0.51820830  0.14455400     0.17500
H1287       H  0.37045184  0.59883886  0.23233027     0.17500
N1288       N  0.31276815  0.58213744  0.21075049    -0.89200
H1289       H  0.43844082  0.54089155  0.14196432     0.34900
H1290       H  0.43846851  0.51118932  0.17056272     0.40000
H1291       H  0.29766506  0.56408825  0.22063430     0.39600
H1292       H  0.30114745  0.59265795  0.19044188     0.34500
C1293       C  0.15544958  0.57973672  0.20373988    -0.27200
C1294       C  0.15449086  0.55667350  0.17898696    -0.15300
C1295       C  0.12330021  0.54419294  0.16918758     0.35300
C1296       C  0.09417933  0.55503821  0.18426187    -0.26700
C1297       C  0.09521331  0.57888811  0.20822174    -0.15900
C1298       C  0.12641814  0.59124668  0.21800760     0.36400
N1299       N  0.12891855  0.61639496  0.24176151    -0.90200
H1300       H  0.17887038  0.58964537  0.21165680     0.17500
H1301       H  0.07057288  0.54601827  0.17581598     0.17500
N1302       N  0.12073152  0.52123566  0.14319983    -0.89200
H1303       H  0.13997506  0.63623035  0.23022100     0.34900
H1304       H  0.14478813  0.60879128  0.26044379     0.40000
H1305       H  0.10603780  0.53100662  0.12458371     0.39600
H1306       H  0.10866802  0.50084925  0.15239190     0.34500
C1307       C  0.28975290  0.86932131  0.08016520    -0.27200
C1308       C  0.30317063  0.89846303  0.06856432    -0.15300
C1309       C  0.32358390  0.89884303  0.04054275     0.35300
C1310       C  0.33082168  0.87004586  0.02504675    -0.26700
C1311       C  0.31811689  0.84078489  0.03716564    -0.15900
C1312       C  0.29693078  0.84056805  0.06472420     0.36400
N1313       N  0.28403223  0.81122664  0.07827722    -0.90200
H1314       H  0.27358839  0.86866237  0.10153521     0.17500
H1315       H  0.34764411  0.87066387  0.00424368     0.17500
N1316       N  0.33781488  0.92811490  0.02833606    -0.89200
H1317       H  0.25827894  0.81264488  0.07857410     0.34900
H1318       H  0.29209610  0.80915602  0.10266176     0.40000
H1319       H  0.33046206  0.93111145  0.00381821     0.39600
H1320       H  0.36349674  0.92578924  0.02861484     0.34500
C1321       C  0.34266625  0.64095213  0.08571183    -0.27200
C1322       C  0.32059009  0.66496687  0.07538586    -0.15300
C1323       C  0.28695552  0.66191633  0.08371574     0.35300
C1324       C  0.27554216  0.63248013  0.09691848    -0.26700
C1325       C  0.29730105  0.60655823  0.10106583    -0.15900
C1326       C  0.33132853  0.61178183  0.09785156     0.36400
N1327       N  0.35452858  0.58730862  0.10631972    -0.90200
H1328       H  0.36910016  0.64381010  0.08247181     0.17500
H1329       H  0.24949807  0.62919924  0.10206795     0.17500
N1330       N  0.26459031  0.68785480  0.07770683    -0.89200
H1331       H  0.37032151  0.59639079  0.12436516     0.34900
H1332       H  0.36868701  0.58224936  0.08539027     0.40000
H1333       H  0.27165743  0.70679717  0.09290752     0.39600
H1334       H  0.24065796  0.68138458  0.08497461     0.34500
C1335       C  0.34032706  0.86583021  0.42715091    -0.27200
C1336       C  0.31874301  0.84586242  0.44513651    -0.15300
C1337       C  0.28916644  0.85882000  0.45726814     0.35300
C1338       C  0.28199833  0.89136782  0.45173643    -0.26700
C1339       C  0.30220429  0.91059409  0.43149697    -0.15900
C1340       C  0.33186120  0.89749310  0.41933685     0.36400
N1341       N  0.35297652  0.91603890  0.39802827    -0.90200
H1342       H  0.36377348  0.85661789  0.41859007     0.17500
H1343       H  0.25939920  0.90108389  0.46133261     0.17500
N1344       N  0.26555596  0.83917267  0.47419135    -0.89200
H1345       H  0.35533184  0.90387043  0.37568498     0.34900
H1346       H  0.37632769  0.91732371  0.40882460     0.40000
H1347       H  0.27602383  0.82990311  0.49550225     0.39600
H1348       H  0.25998302  0.81971186  0.45923740     0.34500
C1349       C  0.30921574  0.65383682  0.41884111    -0.27200
C1350       C  0.31401966  0.65564070  0.45268673    -0.15300
C1351       C  0.31159718  0.62740796  0.47196081     0.35300
C1352       C  0.30220796  0.59824031  0.45753095    -0.26700
C1353       C  0.29713696  0.59624460  0.42353769    -0.15900
C1354       C  0.30174647  0.62464259  0.40388971     0.36400
N1355       N  0.29906960  0.62436658  0.36859579    -0.90200
H1356       H  0.31307607  0.67495830  0.40352379     0.17500
H1357       H  0.29956337  0.57704754  0.47291857     0.17500
N1358       N  0.31966003  0.62805809  0.50616860    -0.89200
H1359       H  0.32142539  0.63256806  0.35856465     0.34900
H1360       H  0.28075920  0.64057401  0.36160530     0.40000
H1361       H  0.33935401  0.61240695  0.50997810     0.39600
H1362       H  0.29530761  0.62124230  0.02026988     0.34500
C1363       C  0.39557286  0.80902948  0.37100437    -0.27200
C1364       C  0.41670064  0.80039424  0.39685720    -0.15300
C1365       C  0.44933824  0.79136005  0.38925121     0.35300
C1366       C  0.46067937  0.79331163  0.35657540    -0.26700
C1367       C  0.44082277  0.80587848  0.33149541    -0.15900
C1368       C  0.40752355  0.81228569  0.33862732     0.36400
N1369       N  0.38614124  0.82368453  0.31322651    -0.90200
H1370       H  0.36978210  0.81382685  0.37604410     0.17500
H1371       H  0.48553778  0.78619822  0.35093394     0.17500
N1372       N  0.47108262  0.77939305  0.41410190    -0.89200
H1373       H  0.37683695  0.84573886  0.32085135     0.34900
H1374       H  0.36630619  0.80766600  0.31141769     0.40000
H1375       H  0.46019650  0.75914244  0.42485204     0.39600
H1376       H  0.47298687  0.79668160  0.43242054     0.34500
C1377       C  0.46720597  0.80478548  0.12455353    -0.27200
C1378       C  0.44971633  0.82395432  0.14680717    -0.15300
C1379       C  0.42010750  0.83823218  0.13652531     0.35300
C1380       C  0.40890699  0.83375426  0.10437445    -0.26700
C1381       C  0.42659449  0.81491520  0.08189157    -0.15900
C1382       C  0.45678586  0.80148582  0.09175798     0.36400
N1383       N  0.47689309  0.78404379  0.06910333    -0.90200
H1384       H  0.48874506  0.79207214  0.13271021     0.17500
H1385       H  0.38510246  0.84347453  0.09751377     0.17500
N1386       N  0.40052157  0.85618618  0.15924478    -0.89200
H1387       H  0.48184201  0.79876218  0.04870552     0.34900
H1388       H  0.46375155  0.76421213  0.06075893     0.40000
H1389       H  0.37758274  0.84477144  0.16160864     0.39600
H1390       H  0.39644369  0.87878743  0.14891533     0.34500
C1391       C  0.41302599  0.72142324  0.37761545    -0.27200
C1392       C  0.42105350  0.70698669  0.40816459    -0.15300
C1393       C  0.44027285  0.67937839  0.40845120     0.35300
C1394       C  0.45145589  0.66692001  0.37859797    -0.26700
C1395       C  0.44466344  0.68201516  0.34788726    -0.15900
C1396       C  0.42514018  0.70966428  0.34752502     0.36400
N1397       N  0.41580203  0.72435433  0.31682809    -0.90200
H1398       H  0.39612735  0.74132179  0.37704318     0.17500
H1399       H  0.46604554  0.64526955  0.37967103     0.17500
N1400       N  0.44667560  0.66271007  0.43875377    -0.89200
H1401       H  0.43706798  0.73456241  0.30639324     0.34900
H1402       H  0.39945603  0.74321163  0.32092519     0.40000
H1403       H  0.47222847  0.66061940  0.44135537     0.39600
H1404       H  0.43673557  0.63961825  0.43695118     0.34500
C1405       C  0.45453645  0.68975159  0.09642001    -0.27200
C1406       C  0.43302217  0.71561623  0.09868314    -0.15300
C1407       C  0.42515945  0.72787291  0.13040270     0.35300
C1408       C  0.43784905  0.71336563  0.15887993    -0.26700
C1409       C  0.45673879  0.68565226  0.15668433    -0.15900
C1410       C  0.46573242  0.67414111  0.12493236     0.36400
N1411       N  0.48548654  0.64596908  0.12135842    -0.90200
H1412       H  0.46032280  0.67970493  0.07252193     0.17500
H1413       H  0.43054947  0.72232923  0.18283672     0.17500
N1414       N  0.40191862  0.75335504  0.13409584    -0.89200
H1415       H  0.50627347  0.65180716  0.10713959     0.34900
H1416       H  0.47173492  0.62900021  0.10836272     0.40000
H1417       H  0.41250129  0.77076917  0.14908292     0.39600
H1418       H  0.38137872  0.74424045  0.14683146     0.34500
C1419       C  0.17382740  0.87175788  0.46810827    -0.27200
C1420       C  0.18465200  0.84264540  0.45399988    -0.15300
C1421       C  0.20523478  0.84399565  0.42609620     0.35300
C1422       C  0.21621338  0.87380330  0.41446417    -0.26700
C1423       C  0.20553189  0.90296790  0.42864833    -0.15900
C1424       C  0.18367303  0.90165934  0.45558267     0.36400
N1425       N  0.16897908  0.92992287  0.46890457    -0.90200
H1426       H  0.15645259  0.87124461  0.48852648     0.17500
H1427       H  0.23229507  0.87412419  0.39302309     0.17500
N1428       N  0.21292660  0.81600131  0.40732504    -0.89200
H1429       H  0.15611864  0.94153892  0.45003157     0.34900
H1430       H  0.18764413  0.94526518  0.47699397     0.40000
H1431       H  0.19079217  0.80574130  0.39930858     0.39600
H1432       H  0.22479343  0.79935794  0.42241409     0.34500
C1433       C  0.22088757  0.62342155  0.41810789    -0.27200
C1434       C  0.20909247  0.59436284  0.43219025    -0.15300
C1435       C  0.18737393  0.59601277  0.45924623     0.35300
C1436       C  0.17615396  0.62593585  0.46957131    -0.26700
C1437       C  0.18762174  0.65492851  0.45515934    -0.15900
C1438       C  0.21093770  0.65348342  0.42973406     0.36400
N1439       N  0.22211663  0.68221655  0.41361932    -0.90200
H1440       H  0.23622561  0.62287333  0.39630990     0.17500
H1441       H  0.15696949  0.62633051  0.48820210     0.17500
N1442       N  0.17428967  0.56790471  0.47511175    -0.89200
H1443       H  0.21603732  0.68074512  0.38863623     0.34900
H1444       H  0.24780000  0.68325312  0.41542845     0.40000
H1445       H  0.19397069  0.55466527  0.48456010     0.39600
H1446       H  0.16185588  0.55415055  0.45761123     0.34500
C1447       C  0.21187478  0.85083079  0.03315341    -0.27200
C1448       C  0.19059277  0.83305617  0.05371433    -0.15300
C1449       C  0.17995604  0.84692243  0.08356212     0.35300
C1450       C  0.18913411  0.87817334  0.09115023    -0.26700
C1451       C  0.20847053  0.89697504  0.06955361    -0.15900
C1452       C  0.22027530  0.88296611  0.04018486     0.36400
N1453       N  0.24016825  0.90046487  0.01684702    -0.90200
H1454       H  0.22008769  0.84040944  0.01036125     0.17500
H1455       H  0.18086118  0.88802517  0.11444193     0.17500
N1456       N  0.15936533  0.82993213  0.10665410    -0.89200
H1457       H  0.26255056  0.88847876  0.01465616     0.34900
H1458       H  0.24552171  0.92357250  0.02488508     0.40000
H1459       H  0.17021620  0.80782701  0.11193140     0.39600
H1460       H  0.13627603  0.82617710  0.09607410     0.34500
C1461       C  0.16148869  0.62708094  0.06178092    -0.27200
C1462       C  0.18280927  0.64806286  0.04431425    -0.15300
C1463       C  0.21447631  0.63626901  0.03525883     0.35300
C1464       C  0.22366790  0.60474125  0.04497720    -0.26700
C1465       C  0.20206515  0.58462020  0.06303972    -0.15900
C1466       C  0.17067252  0.59613726  0.07107128     0.36400
N1467       N  0.14811138  0.57664100  0.08984694    -0.90200
H1468       H  0.13680209  0.63457076  0.06823994     0.17500
H1469       H  0.24814808  0.59616693  0.03927071     0.17500
N1470       N  0.23761872  0.65489495  0.01609733    -0.89200
H1471       H  0.12652407  0.57386413  0.07609852     0.34900
H1472       H  0.14208743  0.58893620  0.11141603     0.40000
H1473       H  0.22821906  0.67726359  0.00980881     0.39600
H1474       H  0.24166980  0.64280862  0.99398284     0.34500
C1475       C  0.07625223  0.78014749  0.37756758    -0.27200
C1476       C  0.06895331  0.79392210  0.40843872    -0.15300
C1477       C  0.04752457  0.82014832  0.40931694     0.35300
C1478       C  0.03371459  0.83175461  0.37977379    -0.26700
C1479       C  0.04099883  0.81786470  0.34878328    -0.15900
C1480       C  0.06189842  0.79100084  0.34817550     0.36400
N1481       N  0.07037243  0.77516553  0.31812164    -0.90200
H1482       H  0.09450048  0.76145132  0.37595921     0.17500
H1483       H  0.01792152  0.85257057  0.38107330     0.17500
N1484       N  0.04226535  0.83696386  0.43954668    -0.89200
H1485       H  0.08144193  0.79178245  0.30207862     0.34900
H1486       H  0.04870723  0.76642471  0.30744624     0.40000
H1487       H  0.01692461  0.83793894  0.44415595     0.39600
H1488       H  0.05076949  0.86047724  0.43627670     0.34500
C1489       C  0.08000988  0.77320500  0.12897058    -0.27200
C1490       C  0.07435913  0.78827075  0.09820895    -0.15300
C1491       C  0.05645858  0.81676354  0.09718436     0.35300
C1492       C  0.04443284  0.82959825  0.12649356    -0.26700
C1493       C  0.04878523  0.81406971  0.15737274    -0.15900
C1494       C  0.06665166  0.78543805  0.15841231     0.36400
N1495       N  0.07305014  0.76991236  0.18929273    -0.90200
H1496       H  0.09541993  0.75211980  0.13022582     0.17500
H1497       H  0.03132280  0.85211262  0.12485375     0.17500
N1498       N  0.05274797  0.83416388  0.06682819    -0.89200
H1499       H  0.09862110  0.76850585  0.19226079     0.34900
H1500       H  0.06367563  0.74659037  0.18821408     0.40000
H1501       H  0.02760020  0.83803645  0.06301908     0.39600
H1502       H  0.06410795  0.85654852  0.06948951     0.34500
C1503       C  0.09238783  0.69528294  0.37554754    -0.27200
C1504       C  0.07314753  0.70604542  0.40237527    -0.15300
C1505       C  0.03957261  0.71265137  0.39723459     0.35300
C1506       C  0.02586258  0.70714834  0.36582361    -0.26700
C1507       C  0.04472952  0.69400727  0.34024679    -0.15900
C1508       C  0.07873500  0.69030539  0.34448882     0.36400
N1509       N  0.09912645  0.68063694  0.31725000    -0.90200
H1510       H  0.11854182  0.69093297  0.37857727     0.17500
H1511       H  0.00052520  0.71307960  0.36131994     0.17500
N1512       N  0.01987474  0.72566541  0.42331263    -0.89200
H1513       H  0.12384599  0.67907999  0.32436715     0.34900
H1514       H  0.09799778  0.69869079  0.29928718     0.40000
H1515       H  0.01888177  0.70871926  0.44237005     0.39600
H1516       H  0.49665926  0.71576330  0.42395056     0.34500
C1517       C  0.03328934  0.70692279  0.13793107    -0.27200
C1518       C  0.05083881  0.68574048  0.15827647    -0.15300
C1519       C  0.07995323  0.67195933  0.14627276     0.35300
C1520       C  0.08989926  0.67771727  0.11402408    -0.26700
C1521       C  0.07183865  0.69759021  0.09274298    -0.15900
C1522       C  0.04293932  0.71216648  0.10468825     0.36400
N1523       N  0.02453284  0.73330678  0.08385468    -0.90200
H1524       H  0.01160241  0.71855163  0.14757369     0.17500
H1525       H  0.11284853  0.66717688  0.10594231     0.17500
N1526       N  0.09942146  0.65145852  0.16682617    -0.89200
H1527       H  0.00451413  0.74234041  0.09706002     0.34900
H1528       H  0.01482936  0.71971695  0.06460226     0.40000
H1529       H  0.12313871  0.66131631  0.16845007     0.39600
H1530       H  0.10135162  0.62921228  0.15529477     0.34500
O1531       O  0.07696605  0.71294602  0.53480000    -0.81000
O1532       O  0.07661018  0.78258662  0.96761339    -0.81100
O1533       O  0.12446779  0.77193966  0.57167885    -0.81100
O1534       O  0.12041547  0.72182551  0.92850535    -0.81000
O1535       O  0.08083773  0.77708843  0.53977722    -0.81100
O1536       O  0.07692909  0.71775928  0.96115805    -0.81100
O1537       O  0.11871125  0.78247321  0.93264646    -0.81000
O1538       O  0.12059726  0.71237997  0.56747477    -0.81100
C1539       C  0.08970135  0.70886406  0.56332386     1.08600
C1540       C  0.08803745  0.78602795  0.93823017     1.08500
C1541       C  0.09402380  0.77783133  0.56828802     1.08700
C1542       C  0.08972454  0.71698988  0.93225413     1.08500
O1543       O  0.13716994  0.68201752  0.96435830    -0.81100
O1544       O  0.14287576  0.81132213  0.53420336    -0.81100
O1545       O  0.18190810  0.70507643  0.53201763    -0.81100
O1546       O  0.18020034  0.78701235  0.96683425    -0.81000
O1547       O  0.13643299  0.81767042  0.97350664    -0.81100
O1548       O  0.13660864  0.67582446  0.52800245    -0.81100
O1549       O  0.18081742  0.71442801  0.96302815    -0.81000
O1550       O  0.18489636  0.77733169  0.53466118    -0.81100
Co1551     Co  0.10752895  0.70113620  0.49783587     1.51500
Co1552     Co  0.10835537  0.79247730  0.00400047     1.51700
Co1553     Co  0.15305390  0.74206023  0.54634489     1.51600
Co1554     Co  0.15033525  0.75107767  0.95253428     1.51500
O1555       O  0.13066597  0.74608098  0.49987764    -1.43000
C1556       C  0.16798258  0.68625322  0.96059713     1.08600
C1557       C  0.17330367  0.80548039  0.53920741     1.08700
C1558       C  0.16731359  0.67774327  0.53418420     1.08600
C1559       C  0.16662008  0.81474891  0.96642157     1.08600
O1560       O  0.38222202  0.73011766  0.57752629    -0.81000
O1561       O  0.37907485  0.77324354  0.92941087    -0.81100
O1562       O  0.41635127  0.71525712  0.96607074    -0.81100
O1563       O  0.41674681  0.79746029  0.52715971    -0.81000
O1564       O  0.37364908  0.72338600  0.93266160    -0.81100
O1565       O  0.37727792  0.79131856  0.56539149    -0.81100
O1566       O  0.41643601  0.80435194  0.95515294    -0.81000
O1567       O  0.42180767  0.72301089  0.53998594    -0.81100
C1568       C  0.41222739  0.72537413  0.57016556     1.08600
C1569       C  0.40408034  0.79279089  0.92859710     1.08500
C1570       C  0.40328488  0.71472006  0.93716432     1.08700
C1571       C  0.40531693  0.80169472  0.55626051     1.08500
O1572       O  0.31733943  0.78321037  0.53318906    -0.81100
O1573       O  0.31660169  0.71346900  0.96073477    -0.81100
O1574       O  0.36452955  0.68555852  0.54343159    -0.81100
O1575       O  0.36067769  0.81591847  0.97192032    -0.81000
O1576       O  0.31964882  0.78773047  0.95087804    -0.81100
O1577       O  0.32022821  0.71561918  0.54962871    -0.81100
O1578       O  0.35827613  0.81267676  0.51027801    -0.81000
O1579       O  0.35647237  0.68085880  0.97841423    -0.81100
Co1580     Co  0.34863117  0.75462778  0.55353368     1.51500
Co1581     Co  0.34763294  0.74998471  0.96270254     1.51700
Co1582     Co  0.38981962  0.70494067  0.50710713     1.51600
Co1583     Co  0.39253075  0.77999730  0.98764414     1.51500
O1584       O  0.36633351  0.74687571  0.50826969    -1.43000
C1585       C  0.33057572  0.81025734  0.52701285     1.08600
C1586       C  0.32805980  0.68543039  0.96593429     1.08700
C1587       C  0.33539938  0.68925305  0.55420631     1.08600
C1588       C  0.33374015  0.81482392  0.95478180     1.08600
O1589       O  0.21483844  0.55421698  0.67600473    -0.81000
O1590       O  0.30251388  0.95432449  0.66563680    -0.81100
O1591       O  0.18899909  0.95842242  0.64286476    -0.81100
O1592       O  0.32015491  0.51702944  0.62706748    -0.81000
O1593       O  0.22746911  0.94841080  0.68053037    -0.81100
O1594       O  0.28621370  0.53721859  0.66633482    -0.81100
O1595       O  0.32781607  0.98059876  0.62356979    -0.81000
O1596       O  0.18478651  0.52453798  0.64110288    -0.81100
C1597       C  0.18661458  0.54499267  0.66502423     1.08600
C1598       C  0.32879770  0.96308646  0.65046817     1.08500
C1599       C  0.19749241  0.94842291  0.67139428     1.08700
C1600       C  0.31536969  0.53213296  0.65467485     1.08500
O1601       O  0.25933875  0.56760227  0.62372585    -0.81100
O1602       O  0.23270623  0.92236597  0.61853131    -0.81100
O1603       O  0.20854833  0.52615789  0.57250017    -0.81100
O1604       O  0.29302136  0.95186216  0.57793356    -0.81000
O1605       O  0.28536608  0.92158843  0.62253088    -0.81100
O1606       O  0.22652929  0.55943522  0.61091112    -0.81100
O1607       O  0.29843758  0.54680979  0.59169412    -0.81000
O1608       O  0.21526055  0.95325676  0.57726337    -0.81100
Co1609     Co  0.24064097  0.52825432  0.64775772     1.52700
Co1610     Co  0.25909777  0.95379348  0.64406938     1.51700
Co1611     Co  0.20243993  0.49181268  0.60681965     1.51600
Co1612     Co  0.29154378  0.49940210  0.58933243     1.51500
O1613       O  0.25168835  0.49501197  0.61894748    -1.43000
C1614       C  0.28504080  0.57085429  0.60518257     1.08600
C1615       C  0.22000174  0.92544272  0.59003187     1.08700
C1616       C  0.21417464  0.55462553  0.58224615     1.08600
C1617       C  0.29442427  0.92494498  0.59292687     1.08600
O1618       O  0.17714352  0.53394588  0.86096663    -0.81000
O1619       O  0.31574789  0.96964639  0.86714978    -0.81100
O1620       O  0.28334332  0.53305796  0.81780817    -0.81100
O1621       O  0.20938290  0.96867857  0.82102557    -0.81000
O1622       O  0.31529537  0.52942724  0.86178186    -0.81100
O1623       O  0.17520136  0.97271808  0.86365202    -0.81100
O1624       O  0.28409740  0.96752069  0.82305533    -0.81000
O1625       O  0.21077158  0.53396061  0.81788008    -0.81100
C1626       C  0.18243021  0.53909335  0.83035040     1.08600
C1627       C  0.31262752  0.96514426  0.83644480     1.08500
C1628       C  0.31157713  0.53590729  0.83141231     1.08700
C1629       C  0.17993551  0.96768028  0.83321118     1.08500
O1630       O  0.20990002  0.96460202  0.92459612    -0.81100
O1631       O  0.28065694  0.53941565  0.92214390    -0.81100
O1632       O  0.21687388  0.56968678  0.87871856    -0.81100
O1633       O  0.27556165  0.93264482  0.88435734    -0.81000
O1634       O  0.27888653  0.96524025  0.92732318    -0.81100
O1635       O  0.21320761  0.53803402  0.92248909    -0.81100
O1636       O  0.21256635  0.93410902  0.88059093    -0.81000
O1637       O  0.27863311  0.56897687  0.87704171    -0.81100
Co1638     Co  0.19837783  0.50289717  0.89248444     1.51500
Co1639     Co  0.29201389  0.50137924  0.89352098     1.51700
Co1640     Co  0.24705857  0.54656712  0.84800400     1.51600
Co1641     Co  0.24569212  0.95539256  0.85220469     1.51500
O1642       O  0.24547810  0.50153827  0.87113468    -1.43000
C1643       C  0.20773935  0.93685617  0.91120564     1.08600
C1644       C  0.28403217  0.56676394  0.90760444     1.08700
C1645       C  0.21272379  0.56615618  0.90959827     1.08600
C1646       C  0.28211043  0.93731634  0.91469661     1.08600
O1647       O  0.02809917  0.68220874  0.71427666    -0.81000
O1648       O  0.45872646  0.67680351  0.78781353    -0.81100
O1649       O  0.46910818  0.63827523  0.68092767    -0.81100
O1650       O  0.02278122  0.64484344  0.82217791    -0.81000
O1651       O  0.46345120  0.67904024  0.71492294    -0.81100
O1652       O  0.02339182  0.68463355  0.78579337    -0.81100
O1653       O  0.46289640  0.63408223  0.81939484    -0.81000
O1654       O  0.02884778  0.63929221  0.68285023    -0.81100
C1655       C  0.03372731  0.66908138  0.68655891     1.08600
C1656       C  0.45610252  0.66340342  0.81615310     1.08500
C1657       C  0.46417989  0.66782079  0.68560533     1.08700
C1658       C  0.02638483  0.67458444  0.81530862     1.08500
O1659       O  0.06413119  0.62802699  0.78654906    -0.81100
O1660       O  0.42908306  0.61884628  0.71663666    -0.81100
O1661       O  0.03621970  0.58154498  0.71969487    -0.81100
O1662       O  0.46388425  0.57593706  0.78299822    -0.81000
O1663       O  0.42724360  0.61504578  0.77877625    -0.81100
O1664       O  0.06680849  0.62539133  0.72400108    -0.81100
O1665       O  0.03452344  0.58381532  0.78739591    -0.81000
O1666       O  0.46320440  0.57792334  0.71441956    -0.81100
Co1667     Co  0.04084190  0.65462301  0.75256470     1.51500
Co1668     Co  0.44934523  0.64775157  0.74974982     1.51700
Co1669     Co  0.99816791  0.60877365  0.70542550     1.51600
Co1670     Co  0.49718863  0.60820142  0.79773550     1.51500
O1671       O  0.49732287  0.62940628  0.75085374    -1.43000
C1672       C  0.06209118  0.59795658  0.79093062     1.08600
C1673       C  0.43411962  0.58945053  0.71094724     1.08700
C1674       C  0.06447702  0.59560313  0.71853629     1.08600
C1675       C  0.43413276  0.58584801  0.78457885     1.08600
O1676       O  0.03660834  0.85729742  0.68312386    -0.81000
O1677       O  0.46118323  0.85792714  0.81240803    -0.81100
O1678       O  0.02345123  0.81786972  0.79030976    -0.81100
O1679       O  0.46539959  0.82631718  0.70331592    -0.81000
O1680       O  0.02015583  0.86053102  0.82173988    -0.81100
O1681       O  0.47595820  0.86946270  0.67395222    -0.81100
O1682       O  0.45791017  0.81980780  0.77443243    -0.81000
O1683       O  0.03200441  0.81520124  0.71653407    -0.81100
C1684       C  0.03772471  0.82730642  0.68778964     1.08600
C1685       C  0.45396202  0.82935545  0.80405064     1.08500
C1686       C  0.02534865  0.83080431  0.81879070     1.08700
C1687       C  0.46529200  0.84100902  0.67582885     1.08500
O1688       O  0.47733614  0.92660164  0.71261850    -0.81100
O1689       O  0.03245777  0.91817528  0.78502894    -0.81100
O1690       O  0.07341949  0.86952426  0.72482337    -0.81100
O1691       O  0.42639042  0.88016371  0.77240182    -0.81000
O1692       O  0.46024318  0.92035408  0.78047287    -0.81100
O1693       O  0.04702886  0.91503046  0.71846615    -0.81100
O1694       O  0.43692242  0.89041651  0.71078032    -0.81000
O1695       O  0.06364330  0.87485149  0.78658248    -0.81100
Co1696     Co  0.00798624  0.89086295  0.70128700     1.51500
Co1697     Co  0.99310231  0.88995402  0.79423891     1.51700
Co1698     Co  0.04315530  0.84471999  0.75406204     1.51600
Co1699     Co  0.45147312  0.85391199  0.74054466     1.51500
O1700       O  0.99863238  0.86957913  0.74744034    -1.43000
C1701       C  0.44747858  0.91906410  0.70640246     1.08600
C1702       C  0.06087305  0.90508652  0.78860353     1.08700
C1703       C  0.07394559  0.89913713  0.71804902     1.08600
C1704       C  0.43084009  0.90896954  0.78031635     1.08600
C1705       C  0.34044196  0.93176091  0.79388812    -0.27200
C1706       C  0.34292432  0.95497239  0.81837320    -0.15300
C1707       C  0.37496197  0.96412814  0.82929123     0.35300
C1708       C  0.40339451  0.95064768  0.81509874    -0.26700
C1709       C  0.40086664  0.92669114  0.79140323    -0.15900
C1710       C  0.36879389  0.91718141  0.78081535     0.36400
N1711       N  0.36473708  0.89233954  0.75691034    -0.90200
H1712       H  0.31631258  0.92368604  0.78590973     0.17500
H1713       H  0.42749152  0.95765543  0.82413602     0.17500
N1714       N  0.37896268  0.98604422  0.85598975    -0.89200
H1715       H  0.35171388  0.90158587  0.73684665     0.34900
H1716       H  0.35039607  0.87407659  0.76756409     0.40000
H1717       H  0.39513188  0.00412041  0.84815492     0.39600
H1718       H  0.39056728  0.97385627  0.87529544     0.34500
C1719       C  0.15218114  0.92959271  0.79563223    -0.27200
C1720       C  0.15007528  0.95705039  0.81489130    -0.15300
C1721       C  0.11814755  0.96793256  0.82440417     0.35300
C1722       C  0.08957894  0.95241602  0.81299635    -0.26700
C1723       C  0.09169137  0.92368549  0.79575528    -0.15900
C1724       C  0.12373275  0.91149996  0.78819383     0.36400
N1725       N  0.12773827  0.87990787  0.77490179    -0.90200
H1726       H  0.17633326  0.91992274  0.79009852     0.17500
H1727       H  0.06560559  0.96137478  0.82032078     0.17500
N1728       N  0.11447569  0.99306624  0.84804682    -0.89200
H1729       H  0.12260504  0.86352658  0.79389195     0.34900
H1730       H  0.15233756  0.87592198  0.76826503     0.40000
H1731       H  0.10341933  0.98318455  0.86916613     0.39600
H1732       H  0.11732426  0.47816293  0.87435802     0.34500
C1733       C  0.36138091  0.56778269  0.83682851    -0.27200
C1734       C  0.34122515  0.54987723  0.81572125    -0.15300
C1735       C  0.35383249  0.54046948  0.78497942     0.35300
C1736       C  0.38687016  0.54793308  0.77670474    -0.26700
C1737       C  0.40665015  0.56648093  0.79788667    -0.15900
C1738       C  0.39356489  0.57549759  0.82870891     0.36400
N1739       N  0.41196707  0.59356574  0.85221347    -0.90200
H1740       H  0.35225528  0.57533082  0.86073361     0.17500
H1741       H  0.39665543  0.54018341  0.75335431     0.17500
N1742       N  0.33345810  0.52410416  0.76184537    -0.89200
H1743       H  0.41232223  0.61735473  0.84435824     0.34900
H1744       H  0.43591421  0.58449503  0.85378558     0.40000
H1745       H  0.31375590  0.53909686  0.75603436     0.39600
H1746       H  0.32341146  0.50397959  0.77361708     0.34500
C1747       C  0.13327310  0.53885621  0.79311161    -0.27200
C1748       C  0.15608179  0.55592972  0.81243242    -0.15300
C1749       C  0.14752915  0.58646065  0.82396178     0.35300
C1750       C  0.11609012  0.59850157  0.81820181    -0.26700
C1751       C  0.09273437  0.58120311  0.80012777    -0.15900
C1752       C  0.10118780  0.55093547  0.78787521     0.36400
N1753       N  0.07716096  0.53250295  0.77051646    -0.90200
H1754       H  0.13942751  0.51524362  0.78427577     0.17500
H1755       H  0.10990771  0.62169250  0.82807341     0.17500
N1756       N  0.17071121  0.60519633  0.84227085    -0.89200
H1757       H  0.07368793  0.51085299  0.78312994     0.34900
H1758       H  0.08665116  0.52773963  0.74716642     0.40000
H1759       H  0.16026530  0.61020564  0.86528519     0.39600
H1760       H  0.17435719  0.62693274  0.82976244     0.34500
C1761       C  0.39908567  0.95364033  0.71127668    -0.27200
C1762       C  0.42403657  0.94158669  0.69115568    -0.15300
C1763       C  0.41903320  0.94141178  0.65668327     0.35300
C1764       C  0.38796049  0.94897337  0.64388217    -0.26700
C1765       C  0.36146693  0.95633647  0.66489965    -0.15900
C1766       C  0.36744017  0.95986910  0.69882811     0.36400
N1767       N  0.34168327  0.97030386  0.72049895    -0.90200
H1768       H  0.40384487  0.95649944  0.73712563     0.17500
H1769       H  0.38416532  0.94785470  0.61746384     0.17500
N1770       N  0.44481084  0.93303398  0.63416754    -0.89200
H1771       H  0.35134533  0.97325160  0.74404935     0.34900
H1772       H  0.32427415  0.95183054  0.72253273     0.40000
H1773       H  0.45146038  0.90931929  0.63839738     0.39600
H1774       H  0.46521128  0.94775509  0.63879493     0.34500
C1775       C  0.13255924  0.89138927  0.70124462    -0.27200
C1776       C  0.10672906  0.91277293  0.70890760    -0.15300
C1777       C  0.11389054  0.94557510  0.71016640     0.35300
C1778       C  0.14544353  0.95679254  0.70115669    -0.26700
C1779       C  0.17054442  0.93554754  0.69197821    -0.15900
C1780       C  0.16445318  0.90242074  0.69373619     0.36400
N1781       N  0.19035970  0.87990958  0.68784030    -0.90200
H1782       H  0.12819513  0.86574848  0.70124022     0.17500
H1783       H  0.15005697  0.98238200  0.70021447     0.17500
N1784       N  0.08973254  0.96737914  0.72201352    -0.89200
H1785       H  0.19416150  0.86724199  0.70982482     0.34900
H1786       H  0.18200084  0.86317469  0.67073280     0.40000
H1787       H  0.08632019  0.98527976  0.70424859     0.39600
H1788       H  0.09974005  0.97767083  0.74308726     0.34500
C1789       C  0.37703101  0.53221790  0.66437784    -0.27200
C1790       C  0.34546828  0.54478902  0.67196277    -0.15300
C1791       C  0.34413267  0.57151140  0.69314372     0.35300
C1792       C  0.37322462  0.58403367  0.70637341    -0.26700
C1793       C  0.40463119  0.57126914  0.69909278    -0.15900
C1794       C  0.40630147  0.54464653  0.67826526     0.36400
N1795       N  0.43757589  0.53103810  0.66995881    -0.90200
H1796       H  0.37940240  0.51335217  0.64652763     0.17500
H1797       H  0.37109294  0.60470347  0.72225283     0.17500
N1798       N  0.31406169  0.58814915  0.69999369    -0.89200
H1799       H  0.44035785  0.53204022  0.64432308     0.34900
H1800       H  0.43714007  0.50694065  0.67711099     0.40000
H1801       H  0.29763553  0.57272574  0.71219005     0.39600
H1802       H  0.30373663  0.59576037  0.67770738     0.34500
C1803       C  0.15594332  0.58031058  0.70376255    -0.27200
C1804       C  0.15505200  0.55668849  0.67955003    -0.15300
C1805       C  0.12378652  0.54435422  0.66973642     0.35300
C1806       C  0.09463573  0.55552467  0.68453746    -0.26700
C1807       C  0.09557920  0.57967534  0.70818909    -0.15900
C1808       C  0.12682280  0.59228873  0.71761660     0.36400
N1809       N  0.12930731  0.61812743  0.74056250    -0.90200
H1810       H  0.17938523  0.59027185  0.71154652     0.17500
H1811       H  0.07104655  0.54637975  0.67618449     0.17500
N1812       N  0.12115694  0.52112008  0.64402323    -0.89200
H1813       H  0.14006029  0.63769872  0.72828503     0.34900
H1814       H  0.14556290  0.61126052  0.75918748     0.40000
H1815       H  0.10646493  0.53070898  0.62530250     0.39600
H1816       H  0.10908481  0.50085168  0.65348628     0.34500
C1817       C  0.28829434  0.86698143  0.58468403    -0.27200
C1818       C  0.30301853  0.89609074  0.57492284    -0.15300
C1819       C  0.32440444  0.89717385  0.54767156     0.35300
C1820       C  0.33116778  0.86903847  0.53088693    -0.26700
C1821       C  0.31731287  0.83965213  0.54122493    -0.15900
C1822       C  0.29510080  0.83877709  0.56799631     0.36400
N1823       N  0.28035450  0.80932658  0.57915997    -0.90200
H1824       H  0.27127863  0.86601776  0.60537788     0.17500
H1825       H  0.34836456  0.87021132  0.51037383     0.17500
N1826       N  0.34020312  0.92648961  0.53769057    -0.89200
H1827       H  0.25472631  0.81179402  0.57835534     0.34900
H1828       H  0.28709280  0.80560993  0.60375099     0.40000
H1829       H  0.33400490  0.93104750  0.51309552     0.39600
H1830       H  0.36574004  0.92320255  0.53887964     0.34500
C1831       C  0.34349288  0.63552897  0.57802632    -0.27200
C1832       C  0.32223039  0.66188597  0.57375785    -0.15300
C1833       C  0.29035049  0.66019332  0.58755622     0.35300
C1834       C  0.27853639  0.63046552  0.59957938    -0.26700
C1835       C  0.29860470  0.60298203  0.59836129    -0.15900
C1836       C  0.33201425  0.60633906  0.58984565     0.36400
N1837       N  0.35447545  0.58004549  0.59278029    -0.90200
H1838       H  0.36919179  0.63666597  0.57056899     0.17500
H1839       H  0.25334023  0.62862649  0.60847841     0.17500
N1840       N  0.27031471  0.68826103  0.58978809    -0.89200
H1841       H  0.37352525  0.58681812  0.60864307     0.34900
H1842       H  0.36474775  0.57572560  0.56953593     0.40000
H1843       H  0.26550956  0.69231703  0.61476019     0.39600
H1844       H  0.24766829  0.68373075  0.57850522     0.34500
C1845       C  0.34089764  0.86953180  0.93113802    -0.27200
C1846       C  0.31950150  0.84602539  0.94440334    -0.15300
C1847       C  0.28706298  0.85493346  0.95252544     0.35300
C1848       C  0.27683843  0.88669706  0.94740169    -0.26700
C1849       C  0.29727872  0.90967074  0.93221157    -0.15900
C1850       C  0.32985308  0.90078015  0.92423912     0.36400
N1851       N  0.35163333  0.92328485  0.90840635    -0.90200
H1852       H  0.36629087  0.86345788  0.92559318     0.17500
H1853       H  0.25247045  0.89327020  0.95476022     0.17500
N1854       N  0.26414784  0.83231411  0.96629808    -0.89200
H1855       H  0.35924308  0.91352991  0.88595366     0.34900
H1856       H  0.37248338  0.92603985  0.92324139     0.40000
H1857       H  0.27376096  0.82332921  0.98830478     0.39600
H1858       H  0.26177488  0.81329679  0.94989910     0.34500
C1859       C  0.30661183  0.65504232  0.91947263    -0.27200
C1860       C  0.31128926  0.65672475  0.95330518    -0.15300
C1861       C  0.30804027  0.62856501  0.97262434     0.35300
C1862       C  0.29822935  0.59947765  0.95800165    -0.26700
C1863       C  0.29407384  0.59748418  0.92377331    -0.15900
C1864       C  0.29939779  0.62591944  0.90434379     0.36400
N1865       N  0.29849358  0.62559368  0.86895027    -0.90200
H1866       H  0.31109706  0.67608398  0.90419558     0.17500
H1867       H  0.29497094  0.57830569  0.97329979     0.17500
N1868       N  0.31585903  0.62927213  0.00696759    -0.89200
H1869       H  0.32156677  0.63304658  0.86000715     0.34900
H1870       H  0.28096386  0.64218613  0.86096316     0.40000
H1871       H  0.33501006  0.61310508  0.01121106     0.39600
H1872       H  0.29943864  0.61911829  0.51944404     0.34500
C1873       C  0.39539641  0.81335635  0.87223552    -0.27200
C1874       C  0.41717516  0.80092630  0.89578812    -0.15300
C1875       C  0.44852722  0.79034818  0.88557138     0.35300
C1876       C  0.45802038  0.79385853  0.85246568    -0.26700
C1877       C  0.43788031  0.80996714  0.82988864    -0.15900
C1878       C  0.40575688  0.81854632  0.83960774     0.36400
N1879       N  0.38413838  0.83387875  0.81662584    -0.90200
H1880       H  0.37050615  0.81980514  0.87939582     0.17500
H1881       H  0.48189874  0.78547010  0.84469482     0.17500
N1882       N  0.47101653  0.77591230  0.90828570    -0.89200
H1883       H  0.37756132  0.85613642  0.82624735     0.34900
H1884       H  0.36269957  0.81994685  0.81483908     0.40000
H1885       H  0.45977363  0.75573240  0.91877412     0.39600
H1886       H  0.47543385  0.79216568  0.92723727     0.34500
C1887       C  0.46682300  0.81040909  0.62344362    -0.27200
C1888       C  0.44894363  0.82848142  0.64628699    -0.15300
C1889       C  0.41821040  0.84110262  0.63705430     0.35300
C1890       C  0.40599328  0.83545385  0.60544230    -0.26700
C1891       C  0.42406114  0.81749053  0.58246138    -0.15900
C1892       C  0.45547315  0.80627912  0.59098680     0.36400
N1893       N  0.47545442  0.79052576  0.56680363    -0.90200
H1894       H  0.48915414  0.79885953  0.63108246     0.17500
H1895       H  0.38136575  0.84363604  0.59939444     0.17500
N1896       N  0.39859371  0.85839176  0.66029632    -0.89200
H1897       H  0.46494153  0.76819472  0.56198238     0.34900
H1898       H  0.49900200  0.78652407  0.57606850     0.40000
H1899       H  0.37640424  0.84586864  0.66374042     0.39600
H1900       H  0.39286790  0.88056967  0.64981066     0.34500
C1901       C  0.41322194  0.71904991  0.87662605    -0.27200
C1902       C  0.42114525  0.70450400  0.90718014    -0.15300
C1903       C  0.44075762  0.67706455  0.90733321     0.35300
C1904       C  0.45221379  0.66477882  0.87737871    -0.26700
C1905       C  0.44469958  0.67949934  0.84670262    -0.15900
C1906       C  0.42488903  0.70689740  0.84655694     0.36400
N1907       N  0.41486253  0.72123094  0.81605526    -0.90200
H1908       H  0.39670593  0.73930880  0.87587511     0.17500
H1909       H  0.46712798  0.64333115  0.87826122     0.17500
N1910       N  0.44722482  0.66032581  0.93756280    -0.89200
H1911       H  0.42256320  0.74514004  0.81594562     0.34900
H1912       H  0.38907066  0.72084665  0.81522715     0.40000
H1913       H  0.47279895  0.65857223  0.94025071     0.39600
H1914       H  0.43760830  0.63712069  0.93557493     0.34500
C1915       C  0.45459599  0.69157249  0.59566381    -0.27200
C1916       C  0.43363991  0.71774907  0.59837533    -0.15300
C1917       C  0.42627484  0.73003813  0.63014448     0.35300
C1918       C  0.43894084  0.71518730  0.65841360    -0.26700
C1919       C  0.45731798  0.68718860  0.65579101    -0.15900
C1920       C  0.46587097  0.67571679  0.62387355     0.36400
N1921       N  0.48527940  0.64736918  0.61980677    -0.90200
H1922       H  0.45984534  0.68149366  0.57165074     0.17500
H1923       H  0.43200338  0.72409922  0.68249633     0.17500
N1924       N  0.40344192  0.75582204  0.63405672    -0.89200
H1925       H  0.50597609  0.65310220  0.60541409     0.34900
H1926       H  0.47119777  0.63063833  0.60683216     0.40000
H1927       H  0.41450446  0.77309331  0.64888395     0.39600
H1928       H  0.38291834  0.74701137  0.64704140     0.34500
C1929       C  0.17455703  0.87348606  0.97168755    -0.27200
C1930       C  0.18273857  0.84481770  0.95512654    -0.15300
C1931       C  0.19813452  0.84709909  0.92414478     0.35300
C1932       C  0.20645098  0.87726037  0.91138195    -0.26700
C1933       C  0.19917501  0.90611638  0.92831773    -0.15900
C1934       C  0.18308865  0.90383287  0.95906763     0.36400
N1935       N  0.17401671  0.93162021  0.97741920    -0.90200
H1936       H  0.16048452  0.87229095  0.99446772     0.17500
H1937       H  0.21850020  0.87790809  0.88747461     0.17500
N1938       N  0.20294361  0.81958002  0.90376161    -0.89200
H1939       H  0.15888660  0.94592326  0.96265717     0.34900
H1940       H  0.19545756  0.94448260  0.98300675     0.40000
H1941       H  0.17993486  0.80901431  0.89934411     0.39600
H1942       H  0.21747117  0.80303199  0.91640947     0.34500
C1943       C  0.21811706  0.62542632  0.91397257    -0.27200
C1944       C  0.20689455  0.59624262  0.92828738    -0.15300
C1945       C  0.18618139  0.59770430  0.95613947     0.35300
C1946       C  0.17556167  0.62759050  0.96727803    -0.26700
C1947       C  0.18646117  0.65670560  0.95266394    -0.15900
C1948       C  0.20846530  0.65539774  0.92608335     0.36400
N1949       N  0.21845244  0.68417904  0.90930043    -0.90200
H1950       H  0.23293746  0.62507996  0.89176948     0.17500
H1951       H  0.15709378  0.62785378  0.98660964     0.17500
N1952       N  0.17354745  0.56947564  0.97214136    -0.89200
H1953       H  0.21079951  0.68263332  0.88476168     0.34900
H1954       H  0.24421620  0.68531441  0.90944354     0.40000
H1955       H  0.19349362  0.55607935  0.98075592     0.39600
H1956       H  0.16047903  0.55594189  0.95491721     0.34500
C1957       C  0.21039555  0.85328698  0.53319170    -0.27200
C1958       C  0.19254144  0.83217666  0.55376729    -0.15300
C1959       C  0.18469509  0.84240687  0.58593580     0.35300
C1960       C  0.19272048  0.87336797  0.59572097    -0.26700
C1961       C  0.20900690  0.89508914  0.57472303    -0.15900
C1962       C  0.21829163  0.88477150  0.54303505     0.36400
N1963       N  0.23531645  0.90562908  0.52051485    -0.90200
H1964       H  0.21682321  0.84562175  0.50890052     0.17500
H1965       H  0.18542265  0.88103994  0.61999664     0.17500
N1966       N  0.16780254  0.82214401  0.60915626    -0.89200
H1967       H  0.25753696  0.91275032  0.53107610     0.34900
H1968       H  0.22109238  0.92615027  0.51733429     0.40000
H1969       H  0.18001311  0.80017561  0.61045475     0.39600
H1970       H  0.14374108  0.81860168  0.60096001     0.34500
C1971       C  0.16130591  0.62541494  0.56248102    -0.27200
C1972       C  0.18269712  0.64699069  0.54594726    -0.15300
C1973       C  0.21448501  0.63589216  0.53724655     0.35300
C1974       C  0.22443233  0.60450292  0.54695182    -0.26700
C1975       C  0.20263665  0.58354819  0.56398292    -0.15900
C1976       C  0.17073804  0.59435866  0.57117052     0.36400
N1977       N  0.14787780  0.57401775  0.58856653    -0.90200
H1978       H  0.13636620  0.63246119  0.56852482     0.17500
H1979       H  0.24920624  0.59656883  0.54143438     0.17500
N1980       N  0.23575776  0.65535297  0.51701772    -0.89200
H1981       H  0.12687412  0.57125352  0.57394497     0.34900
H1982       H  0.14083248  0.58565899  0.61021639     0.40000
H1983       H  0.24131546  0.64244157  0.49574317     0.39600
H1984       H  0.25797679  0.65879380  0.52933638     0.34500
C1985       C  0.07849738  0.78301102  0.87781457    -0.27200
C1986       C  0.06748476  0.79387280  0.90887108    -0.15300
C1987       C  0.04068685  0.81505969  0.90998907     0.35300
C1988       C  0.02604967  0.82512118  0.88013156    -0.26700
C1989       C  0.03712565  0.81401662  0.84907304    -0.15900
C1990       C  0.06338200  0.79215773  0.84831370     0.36400
N1991       N  0.07687339  0.78061288  0.81796039    -0.90200
H1992       H  0.10017956  0.76809824  0.87621051     0.17500
H1993       H  0.00640753  0.84261027  0.88101782     0.17500
N1994       N  0.03033740  0.82844281  0.94090135    -0.89200
H1995       H  0.08470567  0.80019362  0.80366397     0.34900
H1996       H  0.05831979  0.76830337  0.80536498     0.40000
H1997       H  0.02086849  0.80981376  0.95554317     0.39600
H1998       H  0.01105579  0.84461730  0.93729296     0.34500
C1999       C  0.08345136  0.77261985  0.62886154    -0.27200
C2000       C  0.07569395  0.78714002  0.59823100    -0.15300
C2001       C  0.05401987  0.81309775  0.59749287     0.35300
C2002       C  0.04124989  0.82443723  0.62719863    -0.26700
C2003       C  0.04788281  0.80948857  0.65792255    -0.15900
C2004       C  0.06912850  0.78314475  0.65858340     0.36400
N2005       N  0.07800999  0.76856258  0.68931989    -0.90200
H2006       H  0.10102500  0.75316839  0.62974453     0.17500
H2007       H  0.02566325  0.84543280  0.62625987     0.17500
N2008       N  0.04650297  0.82907149  0.56689744    -0.89200
H2009       H  0.10361722  0.77041417  0.69186794     0.34900
H2010       H  0.07187652  0.74425181  0.68826498     0.40000
H2011       H  0.02954291  0.84748847  0.57066399     0.39600
H2012       H  0.06822160  0.83993869  0.55823756     0.34500
C2013       C  0.08986010  0.70459368  0.87256397    -0.27200
C2014       C  0.07122321  0.71006339  0.90156866    -0.15300
C2015       C  0.03663651  0.71060201  0.89939484     0.35300
C2016       C  0.02169708  0.70330676  0.86900770    -0.26700
C2017       C  0.04047890  0.69500872  0.84118296    -0.15900
C2018       C  0.07478552  0.69780771  0.84257642     0.36400
N2019       N  0.09449962  0.69294043  0.81362712    -0.90200
H2020       H  0.11659033  0.70526199  0.87290749     0.17500
H2021       H  0.99549630  0.70415467  0.86712330     0.17500
N2022       N  0.01693539  0.71794108  0.92784897    -0.89200
H2023       H  0.11174211  0.67512335  0.81872335     0.34900
H2024       H  0.10763283  0.71411716  0.80885980     0.40000
H2025       H  0.99190186  0.71625711  0.92221656     0.39600
H2026       H  0.51864401  0.70220909  0.94519101     0.34500
C2027       C  0.03301380  0.70743362  0.63864131    -0.27200
C2028       C  0.04997475  0.68530014  0.65846534    -0.15300
C2029       C  0.07854749  0.67081305  0.64586910     0.35300
C2030       C  0.08880741  0.67728026  0.61385246    -0.26700
C2031       C  0.07149352  0.69826009  0.59319142    -0.15900
C2032       C  0.04287636  0.71320484  0.60548794     0.36400
N2033       N  0.02469792  0.73483430  0.58497577    -0.90200
H2034       H  0.01133454  0.71904258  0.64841930     0.17500
H2035       H  0.11134105  0.66618858  0.60536099     0.17500
N2036       N  0.09709347  0.64872238  0.66549642    -0.89200
H2037       H  0.00468702  0.74380728  0.59824791     0.34900
H2038       H  0.01492713  0.72162610  0.56547703     0.40000
H2039       H  0.12124667  0.65745059  0.66740583     0.39600
H2040       H  0.09794570  0.62687297  0.65306230     0.34500
O2041       O  0.57738110  0.21309106  0.03857531    -0.81000
O2042       O  0.57596742  0.28208581  0.47015746    -0.81100
O2043       O  0.62312336  0.27232574  0.07545012    -0.81100
O2044       O  0.61952693  0.22036535  0.43132543    -0.81000
O2045       O  0.57937131  0.27713502  0.04337491    -0.81100
O2046       O  0.57679893  0.21675669  0.46500649    -0.81100
O2047       O  0.61734106  0.28095979  0.43429275    -0.81000
O2048       O  0.62170296  0.21251259  0.07010979    -0.81100
C2049       C  0.59076777  0.20916008  0.06687928     1.08600
C2050       C  0.58684365  0.28504133  0.44047823     1.08500
C2051       C  0.59260319  0.27798756  0.07190334     1.08700
C2052       C  0.58895570  0.21538586  0.43585889     1.08500
O2053       O  0.63753272  0.18144164  0.46756155    -0.81100
O2054       O  0.64004244  0.31256011  0.03846501    -0.81100
O2055       O  0.68211825  0.20753380  0.03437179    -0.81100
O2056       O  0.67954723  0.28695897  0.46707002    -0.81000
O2057       O  0.63555277  0.31713445  0.47389310    -0.81100
O2058       O  0.63748725  0.17731164  0.02935318    -0.81100
O2059       O  0.68080405  0.21429165  0.46468448    -0.81000
O2060       O  0.68327164  0.28012225  0.03825965    -0.81100
Co2061     Co  0.60734823  0.20250675  0.00048316     1.51500
Co2062     Co  0.60884917  0.29233838  0.50566027     1.51700
Co2063     Co  0.65258781  0.24366387  0.04939945     1.51600
Co2064     Co  0.64972802  0.25035229  0.45410747     1.51500
O2065       O  0.62972478  0.24782053  0.00306782    -1.43000
C2066       C  0.66824286  0.18595642  0.46299006     1.08600
C2067       C  0.67057460  0.30770551  0.04349874     1.08700
C2068       C  0.66805033  0.17984778  0.03592825     1.08600
C2069       C  0.66568423  0.31458147  0.46666744     1.08600
O2070       O  0.87791558  0.22769283  0.08028209    -0.81000
O2071       O  0.87877080  0.27275529  0.43082533    -0.81100
O2072       O  0.91841362  0.21719012  0.46865326    -0.81100
O2073       O  0.91970143  0.29106532  0.02963404    -0.81000
O2074       O  0.87558934  0.22354440  0.43511602    -0.81100
O2075       O  0.87964128  0.28897413  0.06770651    -0.81100
O2076       O  0.91619638  0.30448363  0.45575562    -0.81000
O2077       O  0.91780256  0.21731181  0.04386744    -0.81100
C2078       C  0.90713370  0.21931719  0.07375914     1.08600
C2079       C  0.90387377  0.29216240  0.42952780     1.08500
C2080       C  0.90551164  0.21579796  0.43979872     1.08700
C2081       C  0.90893123  0.29575139  0.05880384     1.08500
O2082       O  0.81896391  0.28562967  0.03486105    -0.81100
O2083       O  0.81849480  0.21187614  0.46261184    -0.81100
O2084       O  0.85763676  0.18502787  0.04419352    -0.81100
O2085       O  0.86044372  0.31559105  0.47327680    -0.81000
O2086       O  0.81935174  0.28678661  0.45309624    -0.81100
O2087       O  0.81599004  0.21838856  0.05140365    -0.81100
O2088       O  0.86198117  0.31313027  0.01352973    -0.81000
O2089       O  0.85951641  0.18082460  0.48061146    -0.81100
Co2090     Co  0.84752235  0.25496125  0.05564975     1.51500
Co2091     Co  0.84811329  0.24951428  0.46466517     1.51700
Co2092     Co  0.88562861  0.20272955  0.00929881     1.51600
Co2093     Co  0.89288296  0.28064355  0.48897945     1.51500
O2094       O  0.86518191  0.24615605  0.01055778    -1.43000
C2095       C  0.83394043  0.31194613  0.02982863     1.08600
C2096       C  0.83105115  0.18427623  0.46780087     1.08700
C2097       C  0.82932846  0.19109030  0.05591063     1.08600
C2098       C  0.83325424  0.31402197  0.45669802     1.08600
O2099       O  0.71360699  0.05372999  0.17746546    -0.81000
O2100       O  0.80053049  0.45683643  0.16494350    -0.81100
O2101       O  0.68794425  0.46121586  0.13894591    -0.81100
O2102       O  0.81879105  0.01967774  0.12688987    -0.81000
O2103       O  0.72520765  0.45091087  0.17761652    -0.81100
O2104       O  0.78489532  0.03873890  0.16675555    -0.81100
O2105       O  0.82889218  0.48288727  0.12500225    -0.81000
O2106       O  0.68339729  0.02469523  0.14199124    -0.81100
C2107       C  0.68540029  0.04471991  0.16635074     1.08600
C2108       C  0.82801547  0.46483457  0.15155673     1.08500
C2109       C  0.69554058  0.45083823  0.16755595     1.08700
C2110       C  0.81404069  0.03435893  0.15472343     1.08500
O2111       O  0.75619541  0.06866268  0.12482108    -0.81100
O2112       O  0.73267939  0.42569295  0.11516899    -0.81100
O2113       O  0.70660996  0.02718783  0.07303129    -0.81100
O2114       O  0.79536050  0.45435152  0.07799553    -0.81000
O2115       O  0.78495606  0.42433132  0.12213987    -0.81100
O2116       O  0.72373661  0.06007613  0.11214687    -0.81100
O2117       O  0.79617120  0.04984913  0.09239590    -0.81000
O2118       O  0.71560610  0.45728614  0.07422547    -0.81100
Co2119     Co  0.73926292  0.02873481  0.14850982     1.52700
Co2120     Co  0.75794233  0.45669226  0.14216352     1.51700
Co2121     Co  0.70145827  0.99256725  0.10710142     1.51600
Co2122     Co  0.79036883  0.00205847  0.08921642     1.51500
O2123       O  0.75070864  0.99653481  0.11891477    -1.43000
C2124       C  0.78175096  0.07311502  0.10641997     1.08600
C2125       C  0.72006951  0.42929225  0.08674128     1.08700
C2126       C  0.71147418  0.05554046  0.08335683     1.08600
C2127       C  0.79583779  0.42750782  0.09314835     1.08600
O2128       O  0.67807817  0.03493117  0.36554387    -0.81000
O2129       O  0.81611567  0.46514351  0.36855531    -0.81100
O2130       O  0.78368273  0.03136430  0.32028316    -0.81100
O2131       O  0.70867843  0.46802492  0.32494331    -0.81000
O2132       O  0.81627694  0.02669290  0.36373659    -0.81100
O2133       O  0.67593634  0.47484874  0.36834996    -0.81100
O2134       O  0.78364667  0.46327848  0.32512945    -0.81000
O2135       O  0.71069117  0.03424205  0.32170899    -0.81100
C2136       C  0.68268198  0.03991903  0.33481402     1.08600
C2137       C  0.81226724  0.46025732  0.33817428     1.08500
C2138       C  0.81214349  0.03374711  0.33356847     1.08700
C2139       C  0.67954513  0.46850693  0.33805440     1.08500
O2140       O  0.71234542  0.46495435  0.42820078    -0.81100
O2141       O  0.78312850  0.03802475  0.42455282    -0.81100
O2142       O  0.71935419  0.06982573  0.38223781    -0.81100
O2143       O  0.77454544  0.43091597  0.38803352    -0.81000
O2144       O  0.78150957  0.46522615  0.42928692    -0.81100
O2145       O  0.71553797  0.03815245  0.42604824    -0.81100
O2146       O  0.71160206  0.43445588  0.38422582    -0.81000
O2147       O  0.78102623  0.06743199  0.37931205    -0.81100
Co2148     Co  0.69936434  0.00327931  0.39640308     1.51500
Co2149     Co  0.79304479  0.99954140  0.39612209     1.51700
Co2150     Co  0.74823638  0.04580499  0.35103960     1.51600
Co2151     Co  0.74520893  0.45373709  0.35532395     1.51500
O2152       O  0.74616660  0.00084083  0.37441291    -1.43000
C2153       C  0.70850950  0.43730888  0.41492704     1.08600
C2154       C  0.78697542  0.06519125  0.40975251     1.08700
C2155       C  0.71537819  0.06629454  0.41315504     1.08600
C2156       C  0.78269711  0.43663350  0.41784552     1.08600
O2157       O  0.52759371  0.18426537  0.21828919    -0.81000
O2158       O  0.96118754  0.17663022  0.29177904    -0.81100
O2159       O  0.97843362  0.13589838  0.18707210    -0.81100
O2160       O  0.52096255  0.14070463  0.32373232    -0.81000
O2161       O  0.96094984  0.17649415  0.21852897    -0.81100
O2162       O  0.52246539  0.18259185  0.28998740    -0.81100
O2163       O  0.96793252  0.13443843  0.32464434    -0.81000
O2164       O  0.52943983  0.14324517  0.18420603    -0.81100
C2165       C  0.53359430  0.17289590  0.18984101     1.08600
C2166       C  0.96070560  0.16377186  0.32060065     1.08500
C2167       C  0.96200042  0.16251272  0.19055781     1.08700
C2168       C  0.52491742  0.17068333  0.31889898     1.08500
O2169       O  0.56326535  0.12663573  0.28759306    -0.81100
O2170       O  0.92822070  0.11857992  0.22229783    -0.81100
O2171       O  0.53601019  0.08352946  0.21880129    -0.81100
O2172       O  0.96284052  0.07672657  0.28604795    -0.81000
O2173       O  0.92790787  0.11710900  0.28583447    -0.81100
O2174       O  0.56665375  0.12707281  0.22498068    -0.81100
O2175       O  0.53402004  0.08211015  0.28638392    -0.81000
O2176       O  0.96336815  0.08042963  0.20850827    -0.81100
Co2177     Co  0.54024399  0.15471205  0.25488211     1.51500
Co2178     Co  0.94881602  0.14761125  0.25476818     1.51700
Co2179     Co  0.49858690  0.11102208  0.20433105     1.51600
Co2180     Co  0.99885245  0.10643856  0.30036927     1.51500
O2181       O  0.99615998  0.12979966  0.25640042    -1.43000
C2182       C  0.56142048  0.09647837  0.29118528     1.08600
C2183       C  0.93392793  0.09143396  0.20997908     1.08700
C2184       C  0.56426182  0.09745450  0.21862626     1.08600
C2185       C  0.93367005  0.08751215  0.28902624     1.08600
O2186       O  0.53440580  0.35939110  0.18500481    -0.81000
O2187       O  0.96377011  0.35036840  0.31578375    -0.81100
O2188       O  0.52422297  0.32035017  0.29262676    -0.81100
O2189       O  0.96742063  0.32281355  0.20536465    -0.81000
O2190       O  0.52196912  0.36296026  0.32404864    -0.81100
O2191       O  0.97491705  0.36744866  0.17738286    -0.81100
O2192       O  0.96175086  0.31345284  0.27642522    -0.81000
O2193       O  0.53095851  0.31751104  0.21892294    -0.81100
C2194       C  0.53605487  0.32946876  0.19003805     1.08600
C2195       C  0.95768483  0.32178813  0.30640808     1.08500
C2196       C  0.52645151  0.33315393  0.32115245     1.08700
C2197       C  0.96590017  0.33844304  0.17842875     1.08500
O2198       O  0.97469388  0.42302525  0.21704969    -0.81100
O2199       O  0.53194510  0.42060946  0.28683906    -0.81100
O2200       O  0.57271324  0.37175695  0.22554044    -0.81100
O2201       O  0.92720172  0.37231903  0.27749817    -0.81000
O2202       O  0.95913142  0.41383646  0.28554150    -0.81100
O2203       O  0.54598611  0.41713050  0.21983743    -0.81100
O2204       O  0.93608813  0.38480169  0.21623310    -0.81000
O2205       O  0.56397771  0.37771104  0.28739755    -0.81100
Co2206     Co  0.50653192  0.39327663  0.20354303     1.51500
Co2207     Co  0.49358330  0.39160938  0.29702297     1.51700
Co2208     Co  0.54305389  0.34717047  0.25574879     1.51600
Co2209     Co  0.95289025  0.34826461  0.24410753     1.51500
O2210       O  0.49834763  0.37172165  0.24983434    -1.43000
C2211       C  0.94487812  0.41401405  0.21205511     1.08600
C2212       C  0.56063034  0.40789086  0.28964173     1.08700
C2213       C  0.57281223  0.40122172  0.21806314     1.08600
C2214       C  0.93038457  0.40105622  0.28624700     1.08600
C2215       C  0.83947721  0.42071328  0.30264513    -0.27200
C2216       C  0.84192739  0.44888002  0.32052995    -0.15300
C2217       C  0.87388689  0.46089148  0.32838933     0.35300
C2218       C  0.90230242  0.44613943  0.31573825    -0.26700
C2219       C  0.89993095  0.41752623  0.29827491    -0.15900
C2220       C  0.86783187  0.40405412  0.29313043     0.36400
N2221       N  0.86358184  0.37349479  0.27780498    -0.90200
H2222       H  0.81540826  0.41010734  0.29828604     0.17500
H2223       H  0.92635597  0.45621654  0.32119450     0.17500
N2224       N  0.87781352  0.48717226  0.35056825    -0.89200
H2225       H  0.84990887  0.37653946  0.25627050     0.34900
H2226       H  0.84950111  0.35911296  0.29377291     0.40000
H2227       H  0.89265626  0.50453711  0.33909629     0.39600
H2228       H  0.89062489  0.47888017  0.37123470     0.34500
C2229       C  0.65139066  0.43152371  0.29990006    -0.27200
C2230       C  0.64900831  0.45765410  0.32096362    -0.15300
C2231       C  0.61664534  0.46773971  0.33084792     0.35300
C2232       C  0.58855961  0.45397072  0.31663137    -0.26700
C2233       C  0.59103854  0.42668693  0.29719111    -0.15900
C2234       C  0.62309546  0.41461006  0.29010258     0.36400
N2235       N  0.62738607  0.38359922  0.27587021    -0.90200
H2236       H  0.67546785  0.42178751  0.29412705     0.17500
H2237       H  0.56440651  0.46226888  0.32423770     0.17500
N2238       N  0.61079573  0.48933696  0.35757080    -0.89200
H2239       H  0.63747307  0.36868873  0.29399190     0.34900
H2240       H  0.64510550  0.38551125  0.25722230     0.40000
H2241       H  0.62400728  0.51045486  0.35410551     0.39600
H2242       H  0.61630272  0.97750536  0.37645156     0.34500
C2243       C  0.86057402  0.06739783  0.33980530    -0.27200
C2244       C  0.84131330  0.04897307  0.31828048    -0.15300
C2245       C  0.85441205  0.04060078  0.28741935     0.35300
C2246       C  0.88696062  0.04979097  0.27921606    -0.26700
C2247       C  0.90591799  0.06823677  0.30115262    -0.15900
C2248       C  0.89235614  0.07662802  0.33191902     0.36400
N2249       N  0.91005799  0.09522509  0.35564484    -0.90200
H2250       H  0.85113118  0.07407233  0.36385205     0.17500
H2251       H  0.89693432  0.04361169  0.25535665     0.17500
N2252       N  0.83510567  0.02320810  0.26426495    -0.89200
H2253       H  0.91280477  0.11852920  0.34662143     0.34900
H2254       H  0.93324005  0.08496915  0.35935772     0.40000
H2255       H  0.81442733  0.03696954  0.25859547     0.39600
H2256       H  0.82652919  0.00245814  0.27601276     0.34500
C2257       C  0.63454998  0.03929446  0.29592217    -0.27200
C2258       C  0.65561041  0.05627851  0.31719538    -0.15300
C2259       C  0.64512862  0.08597579  0.32957018     0.35300
C2260       C  0.61391169  0.09765721  0.32167564    -0.26700
C2261       C  0.59215276  0.08025156  0.30165847    -0.15900
C2262       C  0.60243689  0.05065671  0.28905073     0.36400
N2263       N  0.58027859  0.03215036  0.26952302    -0.90200
H2264       H  0.64200768  0.01618510  0.28665429     0.17500
H2265       H  0.60659633  0.12064183  0.33150681     0.17500
N2266       N  0.66605245  0.10416040  0.35093268    -0.89200
H2267       H  0.57629400  0.01028183  0.28159139     0.34900
H2268       H  0.59185469  0.02784995  0.24699558     0.40000
H2269       H  0.65358685  0.10746101  0.37328588     0.39600
H2270       H  0.67003202  0.12668983  0.34014710     0.34500
C2271       C  0.88826981  0.43317170  0.21484034    -0.27200
C2272       C  0.91879185  0.43527501  0.19892194    -0.15300
C2273       C  0.91973441  0.44808734  0.16661191     0.35300
C2274       C  0.89014433  0.45806951  0.15148765    -0.26700
C2275       C  0.85943752  0.45576172  0.16815355    -0.15900
C2276       C  0.85895030  0.44294639  0.20030445     0.36400
N2277       N  0.82851593  0.43804018  0.21784960    -0.90200
H2278       H  0.88672876  0.42099593  0.23777725     0.17500
H2279       H  0.89107941  0.46664842  0.12621930     0.17500
N2280       N  0.94978295  0.44906718  0.14785899    -0.89200
H2281       H  0.82987924  0.44978956  0.24042511     0.34900
H2282       H  0.82545948  0.41354229  0.22234402     0.40000
H2283       H  0.95877371  0.42575573  0.14576197     0.39600
H2284       H  0.96713411  0.46249380  0.16093082     0.34500
C2285       C  0.62990011  0.39340752  0.19633566    -0.27200
C2286       C  0.60475710  0.41472636  0.20614926    -0.15300
C2287       C  0.61186398  0.44752689  0.20685661     0.35300
C2288       C  0.64319305  0.45876793  0.19711377    -0.26700
C2289       C  0.66803858  0.43758110  0.18719456    -0.15900
C2290       C  0.66162110  0.40447181  0.18791572     0.36400
N2291       N  0.68712839  0.38204327  0.18023481    -0.90200
H2292       H  0.62531802  0.36780222  0.19604284     0.17500
H2293       H  0.64793012  0.48432487  0.19650660     0.17500
N2294       N  0.58782338  0.46930694  0.21894673    -0.89200
H2295       H  0.69093576  0.36780966  0.20118775     0.34900
H2296       H  0.67855773  0.36688219  0.16174371     0.40000
H2297       H  0.58452258  0.48750910  0.20149119     0.39600
H2298       H  0.59774995  0.47898142  0.24032624     0.34500
C2299       C  0.87586729  0.03559875  0.16235530    -0.27200
C2300       C  0.84432475  0.04709374  0.17167485    -0.15300
C2301       C  0.84320669  0.07293255  0.19395803     0.35300
C2302       C  0.87258620  0.08589781  0.20623552    -0.26700
C2303       C  0.90406614  0.07429174  0.19704297    -0.15900
C2304       C  0.90539724  0.04836577  0.17525822     0.36400
N2305       N  0.93652759  0.03550347  0.16529456    -0.90200
H2306       H  0.87798725  0.01727961  0.14387239     0.17500
H2307       H  0.87048192  0.10579316  0.22311396     0.17500
N2308       N  0.81292013  0.08807258  0.20316431    -0.89200
H2309       H  0.93825643  0.03727840  0.13960862     0.34900
H2310       H  0.93677077  0.01121499  0.17173322     0.40000
H2311       H  0.79770465  0.07137967  0.21517046     0.39600
H2312       H  0.80123451  0.09637820  0.18183803     0.34500
C2313       C  0.65536584  0.08035595  0.20513259    -0.27200
C2314       C  0.65410924  0.05671405  0.18090159    -0.15300
C2315       C  0.62275634  0.04498913  0.17076933     0.35300
C2316       C  0.59379301  0.05703406  0.18498500    -0.26700
C2317       C  0.59510909  0.08130094  0.20847472    -0.15900
C2318       C  0.62642358  0.09303265  0.21860446     0.36400
N2319       N  0.62916075  0.11837403  0.24211948    -0.90200
H2320       H  0.67894429  0.08974343  0.21323954     0.17500
H2321       H  0.57010026  0.04835139  0.17640853     0.17500
N2322       N  0.61988998  0.02154998  0.14527456    -0.89200
H2323       H  0.64127614  0.13767458  0.23068425     0.34900
H2324       H  0.64422033  0.11045936  0.26132974     0.40000
H2325       H  0.60578086  0.03131797  0.12620333     0.39600
H2326       H  0.60713949  0.00167859  0.15472387     0.34500
C2327       C  0.79202953  0.36928126  0.08686705    -0.27200
C2328       C  0.80580298  0.39849622  0.07612933    -0.15300
C2329       C  0.82760564  0.39926686  0.04912459     0.35300
C2330       C  0.83504108  0.37079984  0.03310287    -0.26700
C2331       C  0.82126110  0.34155125  0.04385156    -0.15900
C2332       C  0.79949491  0.34085883  0.07101396     0.36400
N2333       N  0.78584215  0.31137982  0.08346562    -0.90200
H2334       H  0.77498618  0.36838185  0.10754750     0.17500
H2335       H  0.85236091  0.37163983  0.01268674     0.17500
N2336       N  0.84276866  0.42862688  0.03835336    -0.89200
H2337       H  0.76010993  0.31311016  0.08302926     0.34900
H2338       H  0.79315246  0.30864793  0.10802578     0.40000
H2339       H  0.83660547  0.43233398  0.01360133     0.39600
H2340       H  0.86836940  0.42592305  0.03974981     0.34500
C2341       C  0.83837612  0.14136346  0.08673307    -0.27200
C2342       C  0.81588029  0.16545657  0.07745322    -0.15300
C2343       C  0.78247091  0.16185066  0.08622943     0.35300
C2344       C  0.77167117  0.13185145  0.09860153    -0.26700
C2345       C  0.79373476  0.10588287  0.10074138    -0.15900
C2346       C  0.82757911  0.11145512  0.09697572     0.36400
N2347       N  0.85117779  0.08665612  0.10290910    -0.90200
H2348       H  0.86477264  0.14460778  0.08351388     0.17500
H2349       H  0.74583578  0.12821524  0.10452704     0.17500
N2350       N  0.75978383  0.18776953  0.08154043    -0.89200
H2351       H  0.86758862  0.09470378  0.12091973     0.34900
H2352       H  0.86460361  0.08308423  0.08117015     0.40000
H2353       H  0.76712533  0.20635614  0.09706905     0.39600
H2354       H  0.73610973  0.18092128  0.08927935     0.34500
C2355       C  0.84017850  0.36789187  0.43193457    -0.27200
C2356       C  0.81891690  0.34510656  0.44655134    -0.15300
C2357       C  0.78750710  0.35502091  0.45703472     0.35300
C2358       C  0.77791296  0.38706899  0.45237273    -0.26700
C2359       C  0.79806920  0.40929079  0.43559565    -0.15900
C2360       C  0.82988464  0.39947137  0.42591227     0.36400
N2361       N  0.85165045  0.42138312  0.40919890    -0.90200
H2362       H  0.86496710  0.36102346  0.42481984     0.17500
H2363       H  0.75405522  0.39434065  0.46080988     0.17500
N2364       N  0.76500234  0.33305828  0.47248546    -0.89200
H2365       H  0.85789028  0.41152695  0.38637856     0.34900
H2366       H  0.87325590  0.42338763  0.42305424     0.40000
H2367       H  0.77544459  0.32441884  0.49420180     0.39600
H2368       H  0.76164618  0.31361531  0.45683801     0.34500
C2369       C  0.81096047  0.15318340  0.42099878    -0.27200
C2370       C  0.81544955  0.15499989  0.45487091    -0.15300
C2371       C  0.81232503  0.12681905  0.47415314     0.35300
C2372       C  0.80257303  0.09770886  0.45964079    -0.26700
C2373       C  0.79808260  0.09570248  0.42552807    -0.15900
C2374       C  0.80365417  0.12400029  0.40596931     0.36400
N2375       N  0.80269224  0.12350261  0.37058975    -0.90200
H2376       H  0.81535843  0.17420787  0.40567778     0.17500
H2377       H  0.79924596  0.07659547  0.47501882     0.17500
N2378       N  0.81971499  0.12753166  0.50849185    -0.89200
H2379       H  0.82569099  0.13109143  0.36156900     0.34900
H2380       H  0.78501919  0.13994261  0.36259137     0.40000
H2381       H  0.83878169  0.11130360  0.51288913     0.39600
H2382       H  0.79326850  0.12131751  0.02178590     0.34500
C2383       C  0.89657829  0.30415052  0.37036901    -0.27200
C2384       C  0.91811228  0.29792575  0.39665904    -0.15300
C2385       C  0.95098051  0.28944502  0.38960599     0.35300
C2386       C  0.96217678  0.29001383  0.35693776    -0.26700
C2387       C  0.94205757  0.30093926  0.33133831    -0.15900
C2388       C  0.90814119  0.30524297  0.33777186     0.36400
N2389       N  0.88508233  0.31134273  0.31175408    -0.90200
H2390       H  0.87055677  0.30799371  0.37518708     0.17500
H2391       H  0.98713997  0.28323272  0.35159812     0.17500
N2392       N  0.97327133  0.27976578  0.41503442    -0.89200
H2393       H  0.86764008  0.29277864  0.31221561     0.34900
H2394       H  0.89669585  0.31005027  0.28874755     0.40000
H2395       H  0.96332527  0.25983617  0.42730986     0.39600
H2396       H  0.97524444  0.29847404  0.43188016     0.34500
C2397       C  0.96495740  0.29990014  0.13156423    -0.27200
C2398       C  0.95089902  0.32577991  0.14827410    -0.15300
C2399       C  0.92570277  0.34357541  0.13301560     0.35300
C2400       C  0.91526861  0.33563566  0.10144617    -0.26700
C2401       C  0.92926081  0.30993667  0.08456657    -0.15900
C2402       C  0.95488855  0.29224704  0.09930551     0.36400
N2403       N  0.96864606  0.26513224  0.08261691    -0.90200
H2404       H  0.98361927  0.28564805  0.14367980     0.17500
H2405       H  0.89459968  0.34843540  0.09079703     0.17500
N2406       N  0.90970410  0.36912543  0.15007597    -0.89200
H2407       H  0.98747476  0.25488886  0.09667628     0.34900
H2408       H  0.97938830  0.27314622  0.06057409     0.40000
H2409       H  0.88466213  0.36331426  0.15246711     0.39600
H2410       H  0.91146211  0.38962284  0.13523163     0.34500
C2411       C  0.91387686  0.21777765  0.37910636    -0.27200
C2412       C  0.92394819  0.20577331  0.41012192    -0.15300
C2413       C  0.94649438  0.18049946  0.41123162     0.35300
C2414       C  0.95914670  0.16832001  0.38168968    -0.26700
C2415       C  0.94938764  0.18059594  0.35062028    -0.15900
C2416       C  0.92605180  0.20520959  0.34952872     0.36400
N2417       N  0.91259365  0.21561537  0.31868657    -0.90200
H2418       H  0.89496014  0.23590770  0.37763864     0.17500
H2419       H  0.97626955  0.14851344  0.38311588     0.17500
N2420       N  0.95432573  0.16526345  0.44196877    -0.89200
H2421       H  0.91664746  0.24023540  0.31632908     0.34900
H2422       H  0.88709221  0.21161385  0.31933707     0.40000
H2423       H  0.97994423  0.16525635  0.44459957     0.39600
H2424       H  0.94650659  0.14138611  0.44076269     0.34500
C2425       C  0.93696300  0.17604041  0.10146009    -0.27200
C2426       C  0.92546004  0.20744586  0.10246158    -0.15300
C2427       C  0.92184759  0.22247224  0.13360584     0.35300
C2428       C  0.93490870  0.20808776  0.16187788    -0.26700
C2429       C  0.94762067  0.17712482  0.16060727    -0.15900
C2430       C  0.94558136  0.15998694  0.13055352     0.36400
N2431       N  0.95220577  0.12630027  0.12931743    -0.90200
H2432       H  0.93630703  0.16288508  0.07850765     0.17500
H2433       H  0.93359170  0.22064382  0.18514358     0.17500
N2434       N  0.90208624  0.25063819  0.13721255    -0.89200
H2435       H  0.97107428  0.12244152  0.11215029     0.34900
H2436       H  0.93097379  0.11466806  0.12086372     0.40000
H2437       H  0.91478601  0.26693750  0.15188796     0.39600
H2438       H  0.88093259  0.24409059  0.15056636     0.34500
C2439       C  0.67061639  0.37369353  0.47164339    -0.27200
C2440       C  0.68152576  0.34513458  0.45629907    -0.15300
C2441       C  0.70082690  0.34770121  0.42762542     0.35300
C2442       C  0.71055213  0.37801751  0.41637418    -0.26700
C2443       C  0.70033485  0.40667045  0.43207778    -0.15900
C2444       C  0.67939317  0.40419359  0.45965199     0.36400
N2445       N  0.66446473  0.43180397  0.47412257    -0.90200
H2446       H  0.65394846  0.37225926  0.49260471     0.17500
H2447       H  0.72570223  0.37910822  0.39428845     0.17500
N2448       N  0.70812522  0.32045128  0.40760281    -0.89200
H2449       H  0.65075732  0.44350759  0.45592275     0.34900
H2450       H  0.68299935  0.44745372  0.48188915     0.40000
H2451       H  0.68581356  0.31013058  0.40016375     0.39600
H2452       H  0.72077662  0.30353703  0.42165664     0.34500
C2453       C  0.72079740  0.12558011  0.41790221    -0.27200
C2454       C  0.70935117  0.09631249  0.43186287    -0.15300
C2455       C  0.68771776  0.09759839  0.45902100     0.35300
C2456       C  0.67618943  0.12733511  0.46960550    -0.26700
C2457       C  0.68702632  0.15652957  0.45516225    -0.15900
C2458       C  0.71012119  0.15546663  0.42946184     0.36400
N2459       N  0.72042165  0.18434459  0.41305134    -0.90200
H2460       H  0.73655193  0.12532215  0.39633059     0.17500
H2461       H  0.65729328  0.12741136  0.48854659     0.17500
N2462       N  0.67516303  0.06926652  0.47488754    -0.89200
H2463       H  0.71379844  0.18267950  0.38822068     0.34900
H2464       H  0.74615238  0.18574917  0.41425009     0.40000
H2465       H  0.69510621  0.05623804  0.48409492     0.39600
H2466       H  0.66272841  0.05543345  0.45745392     0.34500
C2467       C  0.71257488  0.35156988  0.03838389    -0.27200
C2468       C  0.68871474  0.33538240  0.05742565    -0.15300
C2469       C  0.67515930  0.35126524  0.08502766     0.35300
C2470       C  0.68422371  0.38275940  0.09169160    -0.26700
C2471       C  0.70709874  0.39949060  0.07207728    -0.15900
C2472       C  0.72158790  0.38366663  0.04499879     0.36400
N2473       N  0.74421607  0.39963949  0.02307584    -0.90200
H2474       H  0.72222215  0.33999993  0.01681788     0.17500
H2475       H  0.67325175  0.39451179  0.11275907     0.17500
N2476       N  0.65190177  0.33605092  0.10687738    -0.89200
H2477       H  0.76622330  0.38686828  0.02321256     0.34900
H2478       H  0.74952813  0.42288759  0.03078767     0.40000
H2479       H  0.66158002  0.31411733  0.11467318     0.39600
H2480       H  0.62980578  0.33218460  0.09442644     0.34500
C2481       C  0.66197198  0.12924630  0.06676965    -0.27200
C2482       C  0.68337915  0.14926445  0.04823131    -0.15300
C2483       C  0.71402108  0.13615173  0.03782881     0.35300
C2484       C  0.72197583  0.10403673  0.04664951    -0.26700
C2485       C  0.70015459  0.08466350  0.06536669    -0.15900
C2486       C  0.66980550  0.09763365  0.07496122     0.36400
N2487       N  0.64688331  0.07881535  0.09401448    -0.90200
H2488       H  0.63814401  0.13804905  0.07471644     0.17500
H2489       H  0.74582071  0.09450139  0.03991825     0.17500
N2490       N  0.73749004  0.15422872  0.01853379    -0.89200
H2491       H  0.62474049  0.07745069  0.08093582     0.34900
H2492       H  0.64222498  0.09088082  0.11604775     0.40000
H2493       H  0.72897956  0.17716596  0.01315483     0.39600
H2494       H  0.74054869  0.14255172  0.99605127     0.34500
C2495       C  0.57662018  0.28249287  0.38020958    -0.27200
C2496       C  0.56609962  0.29347722  0.41136698    -0.15300
C2497       C  0.54082652  0.31630662  0.41244884     0.35300
C2498       C  0.52656800  0.32718795  0.38269948    -0.26700
C2499       C  0.53718094  0.31581373  0.35153552    -0.15900
C2500       C  0.56218336  0.29264943  0.35072835     0.36400
N2501       N  0.57534967  0.28086858  0.32033496    -0.90200
H2502       H  0.59800328  0.26730429  0.37845129     0.17500
H2503       H  0.50800784  0.34574056  0.38389660     0.17500
N2504       N  0.53222852  0.33105336  0.44308910    -0.89200
H2505       H  0.58430302  0.30022001  0.30636093     0.34900
H2506       H  0.55634590  0.26956575  0.30741857     0.40000
H2507       H  0.50679607  0.32892072  0.44669939     0.39600
H2508       H  0.53772572  0.35549224  0.44108980     0.34500
C2509       C  0.58187451  0.27373808  0.13246731    -0.27200
C2510       C  0.57427771  0.28773015  0.10156734    -0.15300
C2511       C  0.55390003  0.31455050  0.10043514     0.35300
C2512       C  0.54056623  0.32620952  0.12962037    -0.26700
C2513       C  0.54654903  0.31145869  0.16055856    -0.15900
C2514       C  0.56783943  0.28517227  0.16191835     0.36400
N2515       N  0.57735432  0.27184839  0.19306525    -0.90200
H2516       H  0.59945594  0.25433762  0.13383337     0.17500
H2517       H  0.52553656  0.34756052  0.12793975     0.17500
N2518       N  0.54933411  0.33195900  0.07021267    -0.89200
H2519       H  0.60298414  0.27402018  0.19513055     0.34900
H2520       H  0.57142142  0.24747464  0.19314496     0.40000
H2521       H  0.52404625  0.33434733  0.06618145     0.39600
H2522       H  0.55912608  0.35497769  0.07324584     0.34500
C2523       C  0.58701261  0.20647429  0.37535095    -0.27200
C2524       C  0.56983601  0.20728715  0.40584667    -0.15300
C2525       C  0.53621951  0.19928692  0.40628671     0.35300
C2526       C  0.52097517  0.19007259  0.37678942    -0.26700
C2527       C  0.53808574  0.18939714  0.34660009    -0.15900
C2528       C  0.57133927  0.19836234  0.34596567     0.36400
N2529       N  0.58996214  0.19695091  0.31588045    -0.90200
H2530       H  0.61315889  0.21192117  0.37398707     0.17500
H2531       H  0.49620035  0.18197156  0.37793804     0.17500
N2532       N  0.51794942  0.19871554  0.43660080    -0.89200
H2533       H  0.60932180  0.18082662  0.31928318     0.34900
H2534       H  0.60028143  0.21957288  0.31138246     0.40000
H2535       H  0.50925869  0.17537114  0.44050039     0.39600
H2536       H  0.02145118  0.20359083  0.44307966     0.34500
C2537       C  0.53201538  0.20953319  0.14086661    -0.27200
C2538       C  0.55023189  0.19100476  0.16330662    -0.15300
C2539       C  0.58134098  0.17983571  0.15377175     0.35300
C2540       C  0.59214061  0.18404890  0.12150122    -0.26700
C2541       C  0.57323297  0.20057771  0.09791771    -0.15900
C2542       C  0.54284968  0.21379778  0.10780707     0.36400
N2543       N  0.52395575  0.23252100  0.08500625    -0.90200
H2544       H  0.50896279  0.21979905  0.14878047     0.17500
H2545       H  0.61615883  0.17459005  0.11509428     0.17500
N2546       N  0.60179808  0.16308292  0.17677884    -0.89200
H2547       H  0.50299085  0.24135058  0.09682165     0.34900
H2548       H  0.51574341  0.21721432  0.06644291     0.40000
H2549       H  0.62413817  0.17558734  0.17868218     0.39600
H2550       H  0.60688179  0.14048231  0.16709651     0.34500
O2551       O  0.57799611  0.21270610  0.53849027    -0.81000
O2552       O  0.57612405  0.28304237  0.97053208    -0.81100
O2553       O  0.62534049  0.27234572  0.57377276    -0.81100
O2554       O  0.62013330  0.22236038  0.93183004    -0.81000
O2555       O  0.58102813  0.27677175  0.54263003    -0.81100
O2556       O  0.57704648  0.21781056  0.96502228    -0.81100
O2557       O  0.61833533  0.28309015  0.93569375    -0.81000
O2558       O  0.62266546  0.21254210  0.56963408    -0.81100
C2559       C  0.59170163  0.20883871  0.56665126     1.08600
C2560       C  0.58762017  0.28651989  0.94117112     1.08500
C2561       C  0.59474738  0.27781915  0.57082031     1.08700
C2562       C  0.58961223  0.21660628  0.93602099     1.08500
O2563       O  0.63765789  0.18270846  0.96780107    -0.81100
O2564       O  0.64261528  0.31192872  0.53607306    -0.81100
O2565       O  0.68264068  0.20631453  0.53267127    -0.81100
O2566       O  0.67983804  0.28797721  0.97022035    -0.81000
O2567       O  0.63597018  0.31858734  0.97643405    -0.81100
O2568       O  0.63764883  0.17656467  0.52919166    -0.81100
O2569       O  0.68098845  0.21544634  0.96612162    -0.81000
O2570       O  0.68494403  0.27834859  0.53505313    -0.81100
Co2571     Co  0.60747369  0.20163179  0.50023640     1.51500
Co2572     Co  0.60793317  0.29313387  0.00695909     1.51700
Co2573     Co  0.65380736  0.24286539  0.54770469     1.51600
Co2574     Co  0.65014367  0.25188890  0.95571085     1.51500
O2575       O  0.63014789  0.24683037  0.50183034    -1.43000
C2576       C  0.66841499  0.18716020  0.96374552     1.08600
C2577       C  0.67329959  0.30637529  0.53997472     1.08700
C2578       C  0.66841055  0.17880528  0.53485718     1.08600
C2579       C  0.66635928  0.31577694  0.97009850     1.08600
O2580       O  0.88316224  0.23182967  0.57846873    -0.81000
O2581       O  0.87856088  0.27379701  0.93334670    -0.81100
O2582       O  0.91372759  0.21425916  0.96954174    -0.81100
O2583       O  0.91940869  0.29756709  0.52693613    -0.81000
O2584       O  0.87162553  0.22459104  0.93582266    -0.81100
O2585       O  0.87977577  0.29268068  0.56520474    -0.81100
O2586       O  0.91725656  0.30262493  0.95987639    -0.81000
O2587       O  0.92308712  0.22392793  0.54148526    -0.81100
C2588       C  0.91312296  0.22660090  0.57148060     1.08600
C2589       C  0.90470603  0.29200290  0.93304354     1.08500
C2590       C  0.90078205  0.21461844  0.94054096     1.08700
C2591       C  0.90808818  0.30227758  0.55599453     1.08500
O2592       O  0.81966349  0.28521355  0.53300325    -0.81100
O2593       O  0.81392705  0.21503321  0.96278257    -0.81100
O2594       O  0.86542131  0.18711867  0.54510690    -0.81100
O2595       O  0.86134712  0.31622193  0.97644866    -0.81000
O2596       O  0.81906913  0.28977946  0.95548840    -0.81100
O2597       O  0.82143555  0.21792278  0.54993765    -0.81100
O2598       O  0.86100927  0.31399952  0.51005962    -0.81000
O2599       O  0.85321702  0.18161488  0.97991415    -0.81100
Co2600     Co  0.85036684  0.25642859  0.55383731     1.51500
Co2601     Co  0.84581349  0.25099046  0.96601861     1.51700
Co2602     Co  0.89138652  0.20527020  0.50881998     1.51600
Co2603     Co  0.89163199  0.27864886  0.99124076     1.51500
O2604       O  0.86827905  0.24745257  0.50902635    -1.43000
C2605       C  0.83321882  0.31207349  0.52673450     1.08600
C2606       C  0.82496281  0.18674666  0.96758857     1.08700
C2607       C  0.83605566  0.19134846  0.55493519     1.08600
C2608       C  0.83401889  0.31634151  0.95995185     1.08600
O2609       O  0.71629321  0.05597538  0.67446231    -0.81000
O2610       O  0.80221721  0.45687545  0.66228727    -0.81100
O2611       O  0.68910222  0.46066664  0.63905827    -0.81100
O2612       O  0.82097080  0.01931929  0.62318092    -0.81000
O2613       O  0.72724637  0.45066015  0.67696489    -0.81100
O2614       O  0.78782170  0.04122053  0.66230891    -0.81100
O2615       O  0.82936431  0.48295672  0.62155041    -0.81000
O2616       O  0.68597470  0.02520899  0.64073280    -0.81100
C2617       C  0.68798542  0.04603151  0.66433244     1.08600
C2618       C  0.82920943  0.46514574  0.64818175     1.08500
C2619       C  0.69728971  0.45060776  0.66764728     1.08700
C2620       C  0.81659691  0.03602680  0.64979087     1.08500
O2621       O  0.75942730  0.06882601  0.62056397    -0.81100
O2622       O  0.73363261  0.42464144  0.61566825    -0.81100
O2623       O  0.70842864  0.02634303  0.57152066    -0.81100
O2624       O  0.79412155  0.45521437  0.57439738    -0.81000
O2625       O  0.78620529  0.42499543  0.61894593    -0.81100
O2626       O  0.72624314  0.06023476  0.60936845    -0.81100
O2627       O  0.79756083  0.04817834  0.58710743    -0.81000
O2628       O  0.71614888  0.45496389  0.57399475    -0.81100
Co2629     Co  0.74189330  0.02987216  0.64617523     1.52700
Co2630     Co  0.75928092  0.45655778  0.64069503     1.51700
Co2631     Co  0.70355032  0.99243320  0.60637782     1.51600
Co2632     Co  0.79183964  0.00050521  0.58703121     1.51500
O2633       O  0.75284617  0.99643155  0.61772293    -1.43000
C2634       C  0.78420364  0.07215472  0.60074970     1.08600
C2635       C  0.72087311  0.42728758  0.58723494     1.08700
C2636       C  0.71347319  0.05493591  0.58099389     1.08600
C2637       C  0.79553960  0.42827911  0.58941171     1.08600
O2638       O  0.67892202  0.03481075  0.86491540    -0.81000
O2639       O  0.81499014  0.46607013  0.87069476    -0.81100
O2640       O  0.78470173  0.03235176  0.82005234    -0.81100
O2641       O  0.70856268  0.46743681  0.82517335    -0.81000
O2642       O  0.81714797  0.02937129  0.86356355    -0.81100
O2643       O  0.67473744  0.47466860  0.86761899    -0.81100
O2644       O  0.78310070  0.46325532  0.82691343    -0.81000
O2645       O  0.71180640  0.03417767  0.82127870    -0.81100
C2646       C  0.68369922  0.03960171  0.83418647     1.08600
C2647       C  0.81155656  0.46071881  0.84034797     1.08500
C2648       C  0.81347189  0.03417802  0.83288102     1.08700
C2649       C  0.67911827  0.46807593  0.83747348     1.08500
O2650       O  0.71032910  0.46635955  0.92875092    -0.81100
O2651       O  0.78293727  0.03983718  0.92415369    -0.81100
O2652       O  0.71936118  0.07055684  0.88171689    -0.81100
O2653       O  0.77350471  0.43180333  0.89022625    -0.81000
O2654       O  0.77956646  0.46693497  0.93085746    -0.81100
O2655       O  0.71554140  0.03909117  0.92571755    -0.81100
O2656       O  0.71035263  0.43515160  0.88548881    -0.81000
O2657       O  0.78112374  0.06896159  0.87875672    -0.81100
Co2658     Co  0.70024326  0.00364871  0.89613049     1.51500
Co2659     Co  0.79403324  0.00157490  0.89588962     1.51700
Co2660     Co  0.74884710  0.04667994  0.85062467     1.51600
Co2661     Co  0.74444275  0.45388828  0.85664050     1.51500
O2662       O  0.74718932  0.00182759  0.87418153    -1.43000
C2663       C  0.70723499  0.43833421  0.91616731     1.08600
C2664       C  0.78623010  0.06704665  0.90935954     1.08700
C2665       C  0.71504159  0.06719807  0.91265518     1.08600
C2666       C  0.78151320  0.43820056  0.91993319     1.08600
O2667       O  0.52897931  0.18240057  0.71804674    -0.81000
O2668       O  0.95455998  0.17654320  0.79110020    -0.81100
O2669       O  0.97705985  0.14196806  0.68334756    -0.81100
O2670       O  0.52148879  0.14075800  0.82445047    -0.81000
O2671       O  0.96288592  0.18148594  0.71710387    -0.81100
O2672       O  0.52348290  0.18202980  0.78985723    -0.81100
O2673       O  0.95677757  0.13243541  0.82116700    -0.81000
O2674       O  0.53142326  0.14087720  0.68474869    -0.81100
C2675       C  0.53534222  0.17060905  0.68985993     1.08600
C2676       C  0.95060294  0.16206218  0.81883290     1.08500
C2677       C  0.96597511  0.17008922  0.68776870     1.08700
C2678       C  0.52584211  0.17062857  0.81900916     1.08500
O2679       O  0.56427842  0.12635091  0.78878269    -0.81100
O2680       O  0.92983040  0.12275332  0.71449770    -0.81100
O2681       O  0.53787386  0.08157562  0.71966037    -0.81100
O2682       O  0.96285471  0.07726714  0.78059189    -0.81000
O2683       O  0.92483630  0.11517050  0.77647005    -0.81100
O2684       O  0.56825728  0.12530938  0.72610199    -0.81100
O2685       O  0.53537122  0.08177072  0.78767980    -0.81000
O2686       O  0.96322024  0.08247240  0.70454847    -0.81100
Co2687     Co  0.54147854  0.15353922  0.75533572     1.51500
Co2688     Co  0.94780109  0.14948855  0.75089937     1.51700
Co2689     Co  0.50033592  0.10914682  0.70516840     1.51600
Co2690     Co  0.99384262  0.10872949  0.80078738     1.51500
O2691       O  0.99567041  0.13220219  0.75701820    -1.43000
C2692       C  0.56263213  0.09623593  0.79232742     1.08600
C2693       C  0.93479559  0.09515806  0.70265174     1.08700
C2694       C  0.56608365  0.09570000  0.71942570     1.08600
C2695       C  0.93262187  0.08583313  0.77936936     1.08600
O2696       O  0.53664084  0.35806943  0.68452424    -0.81000
O2697       O  0.96099107  0.35673829  0.81501084    -0.81100
O2698       O  0.52541034  0.31915296  0.79210362    -0.81100
O2699       O  0.96383054  0.32518056  0.70481792    -0.81000
O2700       O  0.52199137  0.36208754  0.82300257    -0.81100
O2701       O  0.97343287  0.36906185  0.67614035    -0.81100
O2702       O  0.95701925  0.31819172  0.77736384    -0.81000
O2703       O  0.53279323  0.31608545  0.71816490    -0.81100
C2704       C  0.53810432  0.32813810  0.68935865     1.08600
C2705       C  0.95345798  0.32815671  0.80705304     1.08500
C2706       C  0.52724396  0.33234878  0.82050772     1.08700
C2707       C  0.96353377  0.34040476  0.67752517     1.08500
O2708       O  0.97524362  0.42539400  0.71488462    -0.81100
O2709       O  0.53234152  0.41949004  0.78547609    -0.81100
O2710       O  0.57430225  0.37090346  0.72527904    -0.81100
O2711       O  0.92566476  0.37779754  0.77513841    -0.81000
O2712       O  0.95865462  0.41869171  0.78282017    -0.81100
O2713       O  0.54719346  0.41596965  0.71912588    -0.81100
O2714       O  0.93486956  0.38900432  0.71388740    -0.81000
O2715       O  0.56439647  0.37667882  0.78689821    -0.81100
Co2716     Co  0.50813442  0.39164252  0.70240800     1.51500
Co2717     Co  0.49385480  0.39051456  0.79549313     1.51700
Co2718     Co  0.54422336  0.34598838  0.75510241     1.51600
Co2719     Co  0.95018955  0.35216709  0.74292502     1.51500
O2720       O  0.49932048  0.37026822  0.74863307    -1.43000
C2721       C  0.94517176  0.41779684  0.70950943     1.08600
C2722       C  0.56104087  0.40685826  0.78862173     1.08700
C2723       C  0.57432393  0.40045841  0.71796469     1.08600
C2724       C  0.92961944  0.40647016  0.78347799     1.08600
C2725       C  0.83910856  0.42492293  0.80076421    -0.27200
C2726       C  0.84156036  0.45008927  0.82286567    -0.15300
C2727       C  0.87342928  0.46135211  0.83211742     0.35300
C2728       C  0.90191745  0.44816355  0.81792595    -0.26700
C2729       C  0.89948612  0.42271223  0.79596370    -0.15900
C2730       C  0.86745971  0.41092910  0.78748570     0.36400
N2731       N  0.86341200  0.38502834  0.76473801    -0.90200
H2732       H  0.81504981  0.41539950  0.79433040     0.17500
H2733       H  0.92598697  0.45698931  0.82521974     0.17500
N2734       N  0.87714229  0.48573649  0.85652999    -0.89200
H2735       H  0.84970961  0.39311345  0.74462410     0.34900
H2736       H  0.84967023  0.36691102  0.77637090     0.40000
H2737       H  0.89117421  0.50442737  0.84630577     0.39600
H2738       H  0.89058455  0.47611507  0.87615767     0.34500
C2739       C  0.65180960  0.42985572  0.80019624    -0.27200
C2740       C  0.64912266  0.45720539  0.81951998    -0.15300
C2741       C  0.61662994  0.46838629  0.82741718     0.35300
C2742       C  0.58890262  0.45454655  0.81262831    -0.26700
C2743       C  0.59152253  0.42575836  0.79564775    -0.15900
C2744       C  0.62360036  0.41268605  0.79065685     0.36400
N2745       N  0.62785058  0.38051247  0.77933832    -0.90200
H2746       H  0.67588765  0.41935767  0.79610453     0.17500
H2747       H  0.56467479  0.46381748  0.81858564     0.17500
N2748       N  0.61006441  0.49077730  0.85324068    -0.89200
H2749       H  0.63663279  0.36693269  0.79918015     0.34900
H2750       H  0.64652610  0.38045503  0.76156381     0.40000
H2751       H  0.62377511  0.51155003  0.84982482     0.39600
H2752       H  0.61814622  0.97787606  0.87783137     0.34500
C2753       C  0.87354013  0.04400869  0.83391491    -0.27200
C2754       C  0.84431087  0.04318602  0.81505695    -0.15300
C2755       C  0.84592173  0.05320784  0.78204473     0.35300
C2756       C  0.87637362  0.06410199  0.76916222    -0.26700
C2757       C  0.90548652  0.06391565  0.78814266    -0.15900
C2758       C  0.90390482  0.05244907  0.82058174     0.36400
N2759       N  0.93224168  0.05170006  0.84163622    -0.90200
H2760       H  0.87305682  0.03913629  0.86015222     0.17500
H2761       H  0.87675406  0.07482187  0.74517867     0.17500
N2762       N  0.81659237  0.05509541  0.76260286    -0.89200
H2763       H  0.94163832  0.07489750  0.84415462     0.34900
H2764       H  0.95017692  0.03733798  0.83062248     0.40000
H2765       H  0.82019296  0.04183607  0.74115296     0.39600
H2766       H  0.81331474  0.07904557  0.75575338     0.34500
C2767       C  0.63514363  0.03866178  0.79606236    -0.27200
C2768       C  0.65686565  0.05591162  0.81642526    -0.15300
C2769       C  0.64711704  0.08599796  0.82830412     0.35300
C2770       C  0.61571989  0.09758376  0.82137740    -0.26700
C2771       C  0.59338559  0.08002590  0.80225229    -0.15900
C2772       C  0.60303446  0.05022952  0.78976558     0.36400
N2773       N  0.58024629  0.03188690  0.77081241    -0.90200
H2774       H  0.64217629  0.01536000  0.78699813     0.17500
H2775       H  0.60874983  0.12062807  0.83120945     0.17500
N2776       N  0.66900385  0.10471627  0.84815632    -0.89200
H2777       H  0.57655937  0.00990733  0.78273670     0.34900
H2778       H  0.59099839  0.02798885  0.74783157     0.40000
H2779       H  0.65744861  0.10886316  0.87083402     0.39600
H2780       H  0.67269402  0.12684998  0.83643073     0.34500
C2781       C  0.89273479  0.44637167  0.71353560    -0.27200
C2782       C  0.92110219  0.44038658  0.69502378    -0.15300
C2783       C  0.92012560  0.44615345  0.66066582     0.35300
C2784       C  0.89029879  0.45528265  0.64575922    -0.26700
C2785       C  0.86095415  0.45745118  0.66438834    -0.15900
C2786       C  0.86233824  0.45276410  0.69872013     0.36400
N2787       N  0.83269628  0.45339187  0.71832307    -0.90200
H2788       H  0.89378439  0.44364826  0.73956612     0.17500
H2789       H  0.88973475  0.45917040  0.61931605     0.17500
N2790       N  0.94861698  0.44171835  0.64023916    -0.89200
H2791       H  0.83815167  0.45103436  0.74313450     0.34900
H2792       H  0.81918842  0.43268983  0.71291285     0.40000
H2793       H  0.95592458  0.41783762  0.64200249     0.39600
H2794       H  0.96765211  0.45615285  0.64929598     0.34500
C2795       C  0.63332152  0.39359400  0.70135823    -0.27200
C2796       C  0.60664748  0.41458642  0.70732721    -0.15300
C2797       C  0.61206762  0.44772018  0.70367418     0.35300
C2798       C  0.64369674  0.45903285  0.69463195    -0.26700
C2799       C  0.66989352  0.43805661  0.68816833    -0.15900
C2800       C  0.66482596  0.40499436  0.69254244     0.36400
N2801       N  0.69128336  0.38285420  0.68764430    -0.90200
H2802       H  0.62993708  0.36790145  0.70369308     0.17500
H2803       H  0.64760723  0.48444959  0.69080793     0.17500
N2804       N  0.58538580  0.46973800  0.70808638    -0.89200
H2805       H  0.69537316  0.37108319  0.71009640     0.34900
H2806       H  0.68345182  0.36545081  0.67097719     0.40000
H2807       H  0.56863942  0.46592198  0.68895131     0.39600
H2808       H  0.59381293  0.49322837  0.70508357     0.34500
C2809       C  0.87779930  0.03659030  0.65885196    -0.27200
C2810       C  0.84670747  0.05100828  0.66404669    -0.15300
C2811       C  0.84608845  0.08180855  0.67813039     0.35300
C2812       C  0.87556348  0.09635417  0.68747432    -0.26700
C2813       C  0.90599652  0.07998819  0.68636108    -0.15900
C2814       C  0.90705254  0.04993327  0.67129508     0.36400
N2815       N  0.93756816  0.03306789  0.66814892    -0.90200
H2816       H  0.87977979  0.01496192  0.64475925     0.17500
H2817       H  0.87396934  0.12013744  0.69786331     0.17500
N2818       N  0.81627251  0.09959265  0.68250113    -0.89200
H2819       H  0.94174086  0.02871538  0.64311826     0.34900
H2820       H  0.93497884  0.01097349  0.68018218     0.40000
H2821       H  0.80043486  0.08681113  0.69820943     0.39600
H2822       H  0.80492102  0.10270076  0.65971471     0.34500
C2823       C  0.65751443  0.08071965  0.70394388    -0.27200
C2824       C  0.65652998  0.05737058  0.67941641    -0.15300
C2825       C  0.62525474  0.04484483  0.66989085     0.35300
C2826       C  0.59615851  0.05604629  0.68475826    -0.26700
C2827       C  0.59718187  0.08005104  0.70858410    -0.15900
C2828       C  0.62844221  0.09231952  0.71830093     0.36400
N2829       N  0.63098023  0.11715833  0.74237822    -0.90200
H2830       H  0.68098407  0.09058210  0.71177046     0.17500
H2831       H  0.57255226  0.04685532  0.67650623     0.17500
N2832       N  0.62256313  0.02129653  0.64447834    -0.89200
H2833       H  0.64231013  0.13702574  0.73118115     0.34900
H2834       H  0.64666625  0.10919073  0.76104912     0.40000
H2835       H  0.60774400  0.03061072  0.62571481     0.39600
H2836       H  0.61063242  0.00108339  0.65423965     0.34500
C2837       C  0.79165292  0.36984872  0.58360662    -0.27200
C2838       C  0.80455980  0.39911848  0.57187935    -0.15300
C2839       C  0.82465884  0.39974999  0.54360198     0.35300
C2840       C  0.83192474  0.37107691  0.52785994    -0.26700
C2841       C  0.81961336  0.34170845  0.54003439    -0.15900
C2842       C  0.79895437  0.34121521  0.56800611     0.36400
N2843       N  0.78651767  0.31173426  0.58165081    -0.90200
H2844       H  0.77572080  0.36900785  0.60514811     0.17500
H2845       H  0.84827931  0.37185553  0.50667016     0.17500
N2846       N  0.83851578  0.42918015  0.53136321    -0.89200
H2847       H  0.76075106  0.31294300  0.58229413     0.34900
H2848       H  0.79493372  0.30968218  0.60591731     0.40000
H2849       H  0.83086145  0.43222281  0.50694520     0.39600
H2850       H  0.86422008  0.42704384  0.53133156     0.34500
C2851       C  0.84331248  0.13845319  0.58024506    -0.27200
C2852       C  0.82184773  0.16420663  0.57378893    -0.15300
C2853       C  0.78841233  0.16134075  0.58285285     0.35300
C2854       C  0.77657040  0.13126684  0.59384216    -0.26700
C2855       C  0.79736979  0.10431514  0.59397783    -0.15900
C2856       C  0.83132351  0.10847305  0.58874299     0.36400
N2857       N  0.85387738  0.08225646  0.59145800    -0.90200
H2858       H  0.86969801  0.14052938  0.57614697     0.17500
H2859       H  0.75083523  0.12852293  0.60063993     0.17500
N2860       N  0.76667644  0.18826511  0.58003031    -0.89200
H2861       H  0.87195390  0.08838680  0.60865595     0.34900
H2862       H  0.86558494  0.07944621  0.56863218     0.40000
H2863       H  0.77469715  0.20554130  0.59677644     0.39600
H2864       H  0.74273507  0.18176920  0.58725084     0.34500
C2865       C  0.84141325  0.37170253  0.93758444    -0.27200
C2866       C  0.82015127  0.34809659  0.95084010    -0.15300
C2867       C  0.78778331  0.35694784  0.95928040     0.35300
C2868       C  0.77731523  0.38857825  0.95402384    -0.26700
C2869       C  0.79737563  0.41149333  0.93832989    -0.15900
C2870       C  0.83007009  0.40282720  0.93044006     0.36400
N2871       N  0.85157291  0.42527218  0.91415471    -0.90200
H2872       H  0.86677782  0.36570109  0.93184451     0.17500
H2873       H  0.75288654  0.39498799  0.96133320     0.17500
N2874       N  0.76509817  0.33433901  0.97338928    -0.89200
H2875       H  0.85917225  0.41522275  0.89183765     0.34900
H2876       H  0.87247460  0.42841105  0.92883415     0.40000
H2877       H  0.77513899  0.32527643  0.99516966     0.39600
H2878       H  0.76224002  0.31540334  0.95697487     0.34500
C2879       C  0.80538649  0.15592073  0.92083902    -0.27200
C2880       C  0.80834260  0.15811626  0.95483999    -0.15300
C2881       C  0.80586448  0.12989609  0.97427647     0.35300
C2882       C  0.79789590  0.10038737  0.95964174    -0.26700
C2883       C  0.79522289  0.09800082  0.92536520    -0.15900
C2884       C  0.80036509  0.12633871  0.90579344     0.36400
N2885       N  0.80144870  0.12544209  0.87041584    -0.90200
H2886       H  0.80987704  0.17692510  0.90550851     0.17500
H2887       H  0.79499207  0.07921795  0.97501633     0.17500
N2888       N  0.81327879  0.13088044  0.00870867    -0.89200
H2889       H  0.82458068  0.13385133  0.86259115     0.34900
H2890       H  0.78352511  0.14101163  0.86120534     0.40000
H2891       H  0.83348038  0.11597479  0.01299359     0.39600
H2892       H  0.79886794  0.11945006  0.52136047     0.34500
C2893       C  0.89735553  0.31541295  0.87818305    -0.27200
C2894       C  0.91851635  0.30021621  0.90042456    -0.15300
C2895       C  0.94871725  0.28755309  0.88858687     0.35300
C2896       C  0.95733507  0.29189059  0.85516551    -0.26700
C2897       C  0.93741528  0.30963458  0.83371284    -0.15900
C2898       C  0.90674555  0.32067155  0.84536100     0.36400
N2899       N  0.88568789  0.33884437  0.82420571    -0.90200
H2900       H  0.87345617  0.32378869  0.88649022     0.17500
H2901       H  0.98054652  0.28262497  0.84628165     0.17500
N2902       N  0.97097559  0.26994058  0.90931224    -0.89200
H2903       H  0.88181387  0.36111539  0.83517002     0.34900
H2904       H  0.86291363  0.32700703  0.82303553     0.40000
H2905       H  0.97342355  0.24706569  0.89936745     0.39600
H2906       H  0.96172549  0.26700654  0.93319200     0.34500
C2907       C  0.96651720  0.30878187  0.62588334    -0.27200
C2908       C  0.94842000  0.32828509  0.64724311    -0.15300
C2909       C  0.91957847  0.34311909  0.63565001     0.35300
C2910       C  0.90920712  0.33802529  0.60332170    -0.26700
C2911       C  0.92699361  0.31803206  0.58205685    -0.15900
C2912       C  0.95676470  0.30457208  0.59286325     0.36400
N2913       N  0.97574962  0.28504527  0.57094890    -0.90200
H2914       H  0.98760752  0.29610670  0.63519723     0.17500
H2915       H  0.88578029  0.34791567  0.59548556     0.17500
N2916       N  0.89995985  0.36237129  0.65718154    -0.89200
H2917       H  0.99824408  0.27965344  0.58197235     0.34900
H2918       H  0.98176473  0.29901484  0.55026317     0.40000
H2919       H  0.87651286  0.35189086  0.65902822     0.39600
H2920       H  0.89720881  0.38485644  0.64611769     0.34500
C2921       C  0.91249735  0.21981410  0.88061892    -0.27200
C2922       C  0.91784575  0.20338333  0.91067320    -0.15300
C2923       C  0.93187005  0.17294610  0.90989151     0.35300
C2924       C  0.94114212  0.15991347  0.87955099    -0.26700
C2925       C  0.93868790  0.17755630  0.84961377    -0.15900
C2926       C  0.92387771  0.20791696  0.85030235     0.36400
N2927       N  0.91870784  0.22573664  0.82033150    -0.90200
H2928       H  0.89864690  0.24182372  0.88061252     0.17500
H2929       H  0.95152854  0.13606003  0.87982223     0.17500
N2930       N  0.93459798  0.15426653  0.93952627    -0.89200
H2931       H  0.94183836  0.23341728  0.81179106     0.34900
H2932       H  0.90514747  0.24646040  0.82499516     0.40000
H2933       H  0.95929889  0.14778220  0.94235380     0.39600
H2934       H  0.92073032  0.13328356  0.93659151     0.34500
C2935       C  0.95202345  0.19014937  0.59738624    -0.27200
C2936       C  0.93364528  0.21803246  0.59979734    -0.15300
C2937       C  0.92686817  0.23096628  0.63139713     0.35300
C2938       C  0.93937676  0.21622988  0.65974889    -0.26700
C2939       C  0.95651772  0.18749094  0.65746666    -0.15900
C2940       C  0.96269852  0.17421640  0.62563301     0.36400
N2941       N  0.97930006  0.14422474  0.62151400    -0.90200
H2942       H  0.95588368  0.17912449  0.57354790     0.17500
H2943       H  0.93370465  0.22621752  0.68369976     0.17500
N2944       N  0.90446437  0.25713119  0.63511613    -0.89200
H2945       H  0.00004520  0.14798941  0.60652075     0.34900
H2946       H  0.96335714  0.12848395  0.60937349     0.40000
H2947       H  0.91532152  0.27390278  0.65064174     0.39600
H2948       H  0.88351627  0.24846161  0.64749869     0.34500
C2949       C  0.67516190  0.37451768  0.97699908    -0.27200
C2950       C  0.68310054  0.34599126  0.95998237    -0.15300
C2951       C  0.69929404  0.34859218  0.92944811     0.35300
C2952       C  0.70771775  0.37884914  0.91708943    -0.26700
C2953       C  0.69995673  0.40760411  0.93398447    -0.15900
C2954       C  0.68412292  0.40503444  0.96485182     0.36400
N2955       N  0.67587201  0.43269148  0.98378171    -0.90200
H2956       H  0.66090458  0.37310030  0.99964475     0.17500
H2957       H  0.72007608  0.37967074  0.89333921     0.17500
N2958       N  0.70477104  0.32127171  0.90895567    -0.89200
H2959       H  0.66079139  0.44747582  0.96948380     0.34900
H2960       H  0.69768017  0.44510485  0.98906066     0.40000
H2961       H  0.68196122  0.31060421  0.90385218     0.39600
H2962       H  0.71912153  0.30472678  0.92181844     0.34500
C2963       C  0.71943475  0.12680643  0.91687805    -0.27200
C2964       C  0.70872565  0.09742648  0.93123699    -0.15300
C2965       C  0.68809072  0.09872068  0.95920569     0.35300
C2966       C  0.67676494  0.12847250  0.97015979    -0.26700
C2967       C  0.68716439  0.15774020  0.95553779    -0.15900
C2968       C  0.70934726  0.15669727  0.92905742     0.36400
N2969       N  0.71917753  0.18566204  0.91252194    -0.90200
H2970       H  0.73429458  0.12666444  0.89468163     0.17500
H2971       H  0.65844749  0.12851357  0.98965148     0.17500
N2972       N  0.67639876  0.07038444  0.97569359    -0.89200
H2973       H  0.71185853  0.18413528  0.88788172     0.34900
H2974       H  0.74490787  0.18715295  0.91300875     0.40000
H2975       H  0.69679998  0.05761347  0.98425309     0.39600
H2976       H  0.66350430  0.05631709  0.95879819     0.34500
C2977       C  0.71131671  0.35353092  0.53266099    -0.27200
C2978       C  0.69297993  0.33320352  0.55371014    -0.15300
C2979       C  0.68528147  0.34426189  0.58560374     0.35300
C2980       C  0.69359571  0.37537563  0.59458640    -0.26700
C2981       C  0.70976838  0.39655752  0.57285428    -0.15900
C2982       C  0.71924325  0.38528383  0.54161979     0.36400
N2983       N  0.73640495  0.40552999  0.51864922    -0.90200
H2984       H  0.71783180  0.34525044  0.50856162     0.17500
H2985       H  0.68660671  0.38353858  0.61883438     0.17500
N2986       N  0.66818377  0.32469087  0.60931736    -0.89200
H2987       H  0.75847120  0.41309258  0.52913870     0.34900
H2988       H  0.72219073  0.42591372  0.51466184     0.40000
H2989       H  0.68028834  0.30270856  0.61127288     0.39600
H2990       H  0.64412908  0.32098496  0.60114446     0.34500
C2991       C  0.66268358  0.12737538  0.56420167    -0.27200
C2992       C  0.68402035  0.14807238  0.54635628    -0.15300
C2993       C  0.71514225  0.13569660  0.53626755     0.35300
C2994       C  0.72350926  0.10362266  0.54469332    -0.26700
C2995       C  0.70170647  0.08357154  0.56265084    -0.15900
C2996       C  0.67096676  0.09580403  0.57194970     0.36400
N2997       N  0.64825045  0.07637421  0.59060294    -0.90200
H2998       H  0.63864802  0.13565525  0.57216920     0.17500
H2999       H  0.74768184  0.09467109  0.53822291     0.17500
N3000       N  0.73874320  0.15439487  0.51773272    -0.89200
H3001       H  0.62624294  0.07475592  0.57733182     0.34900
H3002       H  0.64319113  0.08810643  0.61274164     0.40000
H3003       H  0.72982213  0.17712631  0.51215717     0.39600
H3004       H  0.74281911  0.14289288  0.49528833     0.34500
C3005       C  0.57677790  0.28199349  0.88103473    -0.27200
C3006       C  0.56716110  0.29463959  0.91177593    -0.15300
C3007       C  0.54292367  0.31850369  0.91215735     0.35300
C3008       C  0.52871915  0.32877670  0.88219091    -0.26700
C3009       C  0.53833090  0.31580712  0.85136763    -0.15900
C3010       C  0.56223185  0.29148610  0.85128445     0.36400
N3011       N  0.57396877  0.27751096  0.82133023    -0.90200
H3012       H  0.59737658  0.26577190  0.87981666     0.17500
H3013       H  0.51085905  0.34798576  0.88295792     0.17500
N3014       N  0.53504755  0.33451858  0.94229135    -0.89200
H3015       H  0.58358594  0.29566412  0.80614149     0.34900
H3016       H  0.55404248  0.26659187  0.80947812     0.40000
H3017       H  0.50959526  0.33296333  0.94617115     0.39600
H3018       H  0.54110374  0.35875605  0.93933781     0.34500
C3019       C  0.58358672  0.27259584  0.63124401    -0.27200
C3020       C  0.57668151  0.28741364  0.60060472    -0.15300
C3021       C  0.55680872  0.31458349  0.59975547     0.35300
C3022       C  0.54324357  0.32581437  0.62897149    -0.26700
C3023       C  0.54861630  0.31038423  0.65970278    -0.15900
C3024       C  0.56932239  0.28364602  0.66076379     0.36400
N3025       N  0.57797820  0.26940562  0.69173366    -0.90200
H3026       H  0.60078350  0.25286589  0.63237220     0.17500
H3027       H  0.52844571  0.34733011  0.62746374     0.17500
N3028       N  0.55265469  0.33250064  0.56975850    -0.89200
H3029       H  0.60361082  0.27087843  0.69426060     0.34900
H3030       H  0.57141273  0.24520371  0.69114875     0.40000
H3031       H  0.52741285  0.33494144  0.56534252     0.39600
H3032       H  0.56243055  0.35545388  0.57329414     0.34500
C3033       C  0.58899025  0.20434120  0.87601932    -0.27200
C3034       C  0.57103200  0.20758893  0.90586124    -0.15300
C3035       C  0.53686033  0.20220895  0.90540123     0.35300
C3036       C  0.52170260  0.19331261  0.87570464    -0.26700
C3037       C  0.53968129  0.18962074  0.84629816    -0.15900
C3038       C  0.57359055  0.19608117  0.84647422     0.36400
N3039       N  0.59280883  0.19292404  0.81692756    -0.90200
H3040       H  0.61545058  0.20819057  0.87530155     0.17500
H3041       H  0.49596739  0.18857905  0.87596657     0.17500
N3042       N  0.51769181  0.20442058  0.93503678    -0.89200
H3043       H  0.61151211  0.17634084  0.82138194     0.34900
H3044       H  0.60407728  0.21502999  0.81191795     0.40000
H3045       H  0.50710028  0.18196998  0.93972218     0.39600
H3046       H  0.00015831  0.21333209  0.93690137     0.34500
C3047       C  0.53323228  0.20715358  0.64089415    -0.27200
C3048       C  0.55168390  0.18846159  0.66293984    -0.15300
C3049       C  0.58270972  0.17736406  0.65294206     0.35300
C3050       C  0.59358569  0.18265426  0.62081682    -0.26700
C3051       C  0.57448686  0.19954208  0.59768406    -0.15900
C3052       C  0.54378334  0.21183756  0.60781835     0.36400
N3053       N  0.52391547  0.22957500  0.58508634    -0.90200
H3054       H  0.51011688  0.21707877  0.64906967     0.17500
H3055       H  0.61765217  0.17350966  0.61406669     0.17500
N3056       N  0.60304128  0.15968643  0.67531543    -0.89200
H3057       H  0.50212644  0.23644676  0.59683149     0.34900
H3058       H  0.51695254  0.21399561  0.56625739     0.40000
H3059       H  0.62550613  0.17190680  0.67760371     0.39600
H3060       H  0.60787176  0.13736959  0.66484376     0.34500
O3061       O  0.57963187  0.71144592  0.03623864    -0.81000
O3062       O  0.58193450  0.78191046  0.46749840    -0.81100
O3063       O  0.62494404  0.77165050  0.07177364    -0.81100
O3064       O  0.62537010  0.72172328  0.42914408    -0.81000
O3065       O  0.58095215  0.77543536  0.03996703    -0.81100
O3066       O  0.58192543  0.71768897  0.46200703    -0.81100
O3067       O  0.62483383  0.78234627  0.43348193    -0.81000
O3068       O  0.62382671  0.71175570  0.06806528    -0.81100
C3069       C  0.59297475  0.70736566  0.06448152     1.08600
C3070       C  0.59405900  0.78544915  0.43839408     1.08500
C3071       C  0.59431122  0.77645204  0.06838195     1.08700
C3072       C  0.59466020  0.71652061  0.43306816     1.08500
O3073       O  0.64168074  0.68200172  0.46526436    -0.81100
O3074       O  0.64122169  0.81202036  0.03451141    -0.81100
O3075       O  0.68468123  0.70739977  0.03159295    -0.81100
O3076       O  0.68536957  0.78677863  0.46866684    -0.81000
O3077       O  0.64133832  0.81727816  0.47508073    -0.81100
O3078       O  0.64044378  0.67667726  0.02730748    -0.81100
O3079       O  0.68568060  0.71383995  0.46469656    -0.81000
O3080       O  0.68468193  0.77977822  0.03451137    -0.81100
Co3081     Co  0.60955285  0.70105540  0.99831014     1.51500
Co3082     Co  0.61256586  0.79195125  0.50475139     1.51700
Co3083     Co  0.65452703  0.74307372  0.04634470     1.51600
Co3084     Co  0.65562330  0.75073509  0.45380886     1.51500
O3085       O  0.63141150  0.74663200  0.00006525    -1.43000
C3086       C  0.67254936  0.68581684  0.46206772     1.08600
C3087       C  0.67186640  0.80738732  0.03939609     1.08700
C3088       C  0.67107898  0.67958093  0.03350178     1.08600
C3089       C  0.67167328  0.81453524  0.46852732     1.08600
O3090       O  0.88392773  0.73045224  0.07634616    -0.81000
O3091       O  0.87727886  0.77554906  0.42893738    -0.81100
O3092       O  0.91823909  0.71949875  0.46607682    -0.81100
O3093       O  0.91796996  0.79856635  0.02578622    -0.81000
O3094       O  0.87543784  0.72594485  0.43240265    -0.81100
O3095       O  0.87957635  0.79185314  0.06499011    -0.81100
O3096       O  0.91365151  0.80733008  0.45522753    -0.81000
O3097       O  0.92306435  0.72355846  0.03838700    -0.81100
C3098       C  0.91381858  0.72566521  0.06868759     1.08600
C3099       C  0.90163294  0.79592109  0.42841075     1.08500
C3100       C  0.90552587  0.71891445  0.43702448     1.08700
C3101       C  0.90737026  0.80239994  0.05523365     1.08500
O3102       O  0.81851329  0.78491410  0.03469358    -0.81100
O3103       O  0.81850709  0.71229753  0.45980353    -0.81100
O3104       O  0.86542016  0.68632957  0.04221470    -0.81100
O3105       O  0.85777503  0.81625763  0.47286396    -0.81000
O3106       O  0.81762212  0.78704968  0.45146803    -0.81100
O3107       O  0.82154087  0.71687526  0.04932662    -0.81100
O3108       O  0.85890479  0.81431042  0.01082933    -0.81000
O3109       O  0.86030667  0.68180707  0.47697668    -0.81100
Co3110     Co  0.85021120  0.75561590  0.05343866     1.51500
Co3111     Co  0.84735302  0.75045778  0.46246480     1.51700
Co3112     Co  0.89028155  0.70614901  0.00577520     1.51600
Co3113     Co  0.89113451  0.78176341  0.48776954     1.51500
O3114       O  0.86684944  0.74817506  0.00779358    -1.43000
C3115       C  0.83157657  0.81197934  0.02817854     1.08600
C3116       C  0.83164286  0.68490833  0.46468364     1.08700
C3117       C  0.83647598  0.69029363  0.05344333     1.08600
C3118       C  0.83096322  0.81442184  0.45572892     1.08600
O3119       O  0.71498023  0.55509898  0.17513682    -0.81000
O3120       O  0.80039654  0.95643362  0.16263585    -0.81100
O3121       O  0.68712429  0.96024195  0.14144163    -0.81100
O3122       O  0.82111980  0.51877855  0.12962925    -0.81000
O3123       O  0.72612466  0.95025406  0.17849898    -0.81100
O3124       O  0.78602778  0.53853901  0.16796578    -0.81100
O3125       O  0.82587655  0.98412943  0.12168134    -0.81000
O3126       O  0.68550849  0.52567853  0.13942589    -0.81100
C3127       C  0.68698354  0.54580315  0.16372029     1.08600
C3128       C  0.82673736  0.96561194  0.14785130     1.08500
C3129       C  0.69614199  0.94977487  0.16959267     1.08700
C3130       C  0.81547118  0.53357102  0.15720147     1.08500
O3131       O  0.76106357  0.56882177  0.12405401    -0.81100
O3132       O  0.73068931  0.92532143  0.11558203    -0.81100
O3133       O  0.71166388  0.52789026  0.07140732    -0.81100
O3134       O  0.79213828  0.95520905  0.07614745    -0.81000
O3135       O  0.78301695  0.92446252  0.12016204    -0.81100
O3136       O  0.72839736  0.56084741  0.11067156    -0.81100
O3137       O  0.80128673  0.54816694  0.09326314    -0.81000
O3138       O  0.71199103  0.95685990  0.07539422    -0.81100
Co3139     Co  0.74146996  0.52949034  0.14750868     1.52700
Co3140     Co  0.75687099  0.95645194  0.14165244     1.51700
Co3141     Co  0.70448417  0.49333444  0.10525469     1.51600
Co3142     Co  0.79455037  0.50085532  0.09093148     1.51500
O3143       O  0.75339067  0.49660787  0.11885634    -1.43000
C3144       C  0.78719763  0.57214672  0.10609230     1.08600
C3145       C  0.71725980  0.92886732  0.08751243     1.08700
C3146       C  0.71684539  0.55624772  0.08164837     1.08600
C3147       C  0.79289829  0.92802709  0.09089056     1.08600
O3148       O  0.68036379  0.53498652  0.36846344    -0.81000
O3149       O  0.81448817  0.96742537  0.36731990    -0.81100
O3150       O  0.78424032  0.52849398  0.31950241    -0.81100
O3151       O  0.70786516  0.96919767  0.32331532    -0.81000
O3152       O  0.81857049  0.52415015  0.36175043    -0.81100
O3153       O  0.67452243  0.97489196  0.36634787    -0.81100
O3154       O  0.78215339  0.96565880  0.32376720    -0.81000
O3155       O  0.71149610  0.53321269  0.32370065    -0.81100
C3156       C  0.68417391  0.53988469  0.33766874     1.08600
C3157       C  0.81079061  0.96293095  0.33676319     1.08500
C3158       C  0.81335331  0.53033313  0.33143795     1.08700
C3159       C  0.67869866  0.96864199  0.33611037     1.08500
O3160       O  0.71050590  0.96600190  0.42679557    -0.81100
O3161       O  0.78657887  0.53763375  0.42373283    -0.81100
O3162       O  0.72317109  0.56872270  0.38382878    -0.81100
O3163       O  0.77366489  0.93198123  0.38582122    -0.81000
O3164       O  0.77907348  0.96521220  0.42809183    -0.81100
O3165       O  0.71896890  0.53704540  0.42778413    -0.81100
O3166       O  0.71063967  0.93536926  0.38294990    -0.81000
O3167       O  0.78481021  0.56574189  0.37782548    -0.81100
Co3168     Co  0.70171460  0.50263739  0.39828381     1.51500
Co3169     Co  0.79556717  0.49840923  0.39612210     1.51700
Co3170     Co  0.75037574  0.54420581  0.35146099     1.51600
Co3171     Co  0.74403182  0.95510050  0.35381142     1.51500
O3172       O  0.74817041  0.49960788  0.37542117    -1.43000
C3173       C  0.70777535  0.93812380  0.41373378     1.08600
C3174       C  0.79050215  0.56440567  0.40832030     1.08700
C3175       C  0.71911819  0.56516075  0.41478594     1.08600
C3176       C  0.78130277  0.93702830  0.41583912     1.08600
O3177       O  0.53071194  0.68085720  0.21534110    -0.81000
O3178       O  0.95869191  0.67974358  0.28735010    -0.81100
O3179       O  0.96708471  0.63785158  0.18151106    -0.81100
O3180       O  0.52432593  0.64448891  0.32359762    -0.81000
O3181       O  0.96231789  0.67966673  0.21424733    -0.81100
O3182       O  0.52617233  0.68414348  0.28705399    -0.81100
O3183       O  0.96248771  0.63781238  0.32022077    -0.81000
O3184       O  0.53094963  0.63777978  0.18410805    -0.81100
C3185       C  0.53633002  0.66748746  0.18772670     1.08600
C3186       C  0.95650107  0.66721692  0.31616727     1.08500
C3187       C  0.96263116  0.66760523  0.18527559     1.08700
C3188       C  0.52901423  0.67409927  0.31661713     1.08500
O3189       O  0.56593268  0.62710265  0.28833248    -0.81100
O3190       O  0.92770558  0.61960746  0.21865890    -0.81100
O3191       O  0.53676833  0.58015743  0.22126608    -0.81100
O3192       O  0.96284982  0.57873884  0.28543575    -0.81000
O3193       O  0.92656685  0.61805655  0.28053948    -0.81100
O3194       O  0.56812308  0.62353882  0.22584067    -0.81100
O3195       O  0.53581923  0.58315934  0.28960080    -0.81000
O3196       O  0.96221096  0.57882374  0.21756795    -0.81100
Co3197     Co  0.54286599  0.65349748  0.25399391     1.51500
Co3198     Co  0.94851169  0.64964990  0.25033141     1.51700
Co3199     Co  0.49935238  0.60810265  0.20668358     1.51600
Co3200     Co  0.99646845  0.61119591  0.29897981     1.51500
O3201       O  0.99637357  0.63110097  0.25151614    -1.43000
C3202       C  0.56345782  0.59721484  0.29364752     1.08600
C3203       C  0.93301071  0.59004082  0.21428402     1.08700
C3204       C  0.56523986  0.59384702  0.22015724     1.08600
C3205       C  0.93320787  0.58892758  0.28691713     1.08600
O3206       O  0.53649222  0.85502420  0.18294241    -0.81000
O3207       O  0.96158325  0.85976526  0.31229333    -0.81100
O3208       O  0.52869964  0.81466291  0.29012144    -0.81100
O3209       O  0.96638085  0.82766368  0.20275838    -0.81000
O3210       O  0.52589670  0.85734507  0.32134636    -0.81100
O3211       O  0.97543112  0.87121685  0.17347695    -0.81100
O3212       O  0.95920467  0.82119649  0.27463123    -0.81000
O3213       O  0.53383984  0.81270041  0.21636963    -0.81100
C3214       C  0.53835496  0.82503596  0.18757623     1.08600
C3215       C  0.95518347  0.83090334  0.30426826     1.08500
C3216       C  0.53121075  0.82771981  0.31846100     1.08700
C3217       C  0.96595576  0.84237595  0.17521552     1.08500
O3218       O  0.97441875  0.92827918  0.21178936    -0.81100
O3219       O  0.53449394  0.91503177  0.28483690    -0.81100
O3220       O  0.57502930  0.86738891  0.22287811    -0.81100
O3221       O  0.92569204  0.88009931  0.27211906    -0.81000
O3222       O  0.95787896  0.92170240  0.27944620    -0.81100
O3223       O  0.54776529  0.91261150  0.21848891    -0.81100
O3224       O  0.93538806  0.89063860  0.21034091    -0.81000
O3225       O  0.56754115  0.87281232  0.28463824    -0.81100
Co3226     Co  0.50854906  0.88858705  0.20209081     1.51500
Co3227     Co  0.49678043  0.88571825  0.29532565     1.51700
Co3228     Co  0.54625786  0.84215429  0.25318151     1.51600
Co3229     Co  0.95150483  0.85478528  0.24024622     1.51500
O3230       O  0.50107164  0.86631011  0.24809415    -1.43000
C3231       C  0.94480254  0.91964832  0.20575295     1.08600
C3232       C  0.56339990  0.90286502  0.28752567     1.08700
C3233       C  0.57478689  0.89707870  0.21656531     1.08600
C3234       C  0.92906663  0.90906438  0.27982696     1.08600
C3235       C  0.83836433  0.92835808  0.29540903    -0.27200
C3236       C  0.84073142  0.95282816  0.31850563    -0.15300
C3237       C  0.87259801  0.96370161  0.32811154     0.35300
C3238       C  0.90108973  0.95051378  0.31399852    -0.26700
C3239       C  0.89876626  0.92554372  0.29146869    -0.15900
C3240       C  0.86686129  0.91451520  0.28196828     0.36400
N3241       N  0.86314246  0.88953814  0.25814986    -0.90200
H3242       H  0.81431976  0.91920054  0.28843444     0.17500
H3243       H  0.92513235  0.95883832  0.32196837     0.17500
N3244       N  0.87636900  0.98732972  0.35326469    -0.89200
H3245       H  0.84959090  0.89854179  0.23829986     0.34900
H3246       H  0.84934863  0.87096371  0.26893508     0.40000
H3247       H  0.89094818  0.00594593  0.34370773     0.39600
H3248       H  0.88934361  0.97694760  0.37280543     0.34500
C3249       C  0.65297569  0.92974046  0.29853142    -0.27200
C3250       C  0.64910652  0.95634402  0.31876778    -0.15300
C3251       C  0.61631432  0.96549033  0.32791696     0.35300
C3252       C  0.58910203  0.95022581  0.31384098    -0.26700
C3253       C  0.59302855  0.92247203  0.29536822    -0.15900
C3254       C  0.62558437  0.91144260  0.28890262     0.36400
N3255       N  0.63129369  0.88035951  0.27532709    -0.90200
H3256       H  0.67753572  0.92085770  0.29332806     0.17500
H3257       H  0.56452778  0.95787680  0.32080446     0.17500
N3258       N  0.60925101  0.98756068  0.35392449    -0.89200
H3259       H  0.64184171  0.86621196  0.29382307     0.34900
H3260       H  0.64910349  0.88259882  0.25679965     0.40000
H3261       H  0.62203880  0.00890089  0.35013997     0.39600
H3262       H  0.61800720  0.47847242  0.37965785     0.34500
C3263       C  0.85678678  0.56976800  0.33413315    -0.27200
C3264       C  0.84146920  0.54626835  0.31491381    -0.15300
C3265       C  0.85861235  0.53387680  0.28760602     0.35300
C3266       C  0.89077825  0.54543138  0.28027698    -0.26700
C3267       C  0.90532930  0.56967251  0.29945735    -0.15900
C3268       C  0.88796271  0.58133570  0.32703451     0.36400
N3269       N  0.90145101  0.60485777  0.34882071    -0.90200
H3270       H  0.84503047  0.57821827  0.35639181     0.17500
H3271       H  0.90399682  0.53594164  0.25931339     0.17500
N3272       N  0.84421875  0.50902009  0.26822037    -0.89200
H3273       H  0.90314507  0.62677691  0.33642947     0.34900
H3274       H  0.92482692  0.59744572  0.35644268     0.40000
H3275       H  0.86080403  0.48996923  0.26772689     0.39600
H3276       H  0.84213237  0.51747008  0.24403739     0.34500
C3277       C  0.63620502  0.54008485  0.29887531    -0.27200
C3278       C  0.65690785  0.55659106  0.32079657    -0.15300
C3279       C  0.64599978  0.58578021  0.33416128     0.35300
C3280       C  0.61485011  0.59760834  0.32607679    -0.26700
C3281       C  0.59362701  0.58073755  0.30510639    -0.15900
C3282       C  0.60412827  0.55143622  0.29207246     0.36400
N3283       N  0.58226464  0.53332697  0.27190738    -0.90200
H3284       H  0.64392291  0.51731602  0.28895491     0.17500
H3285       H  0.60703989  0.62009913  0.33660838     0.17500
N3286       N  0.66642741  0.60327723  0.35658890    -0.89200
H3287       H  0.57832538  0.51114054  0.28331003     0.34900
H3288       H  0.59420888  0.52968730  0.24948564     0.40000
H3289       H  0.65354254  0.60570511  0.37883331     0.39600
H3290       H  0.67046334  0.62619663  0.34674789     0.34500
C3291       C  0.89418474  0.95140707  0.21034601    -0.27200
C3292       C  0.92040516  0.94139879  0.19058545    -0.15300
C3293       C  0.91690341  0.94329350  0.15592220     0.35300
C3294       C  0.88651222  0.95220522  0.14225058    -0.26700
C3295       C  0.85911791  0.95826127  0.16257468    -0.15900
C3296       C  0.86320761  0.95842149  0.19689579     0.36400
N3297       N  0.83559877  0.96494368  0.21795928    -0.90200
H3298       H  0.89745747  0.95226033  0.23648379     0.17500
H3299       H  0.88386319  0.95288485  0.11566523     0.17500
N3300       N  0.94337056  0.93530354  0.13405544    -0.89200
H3301       H  0.82799980  0.98835140  0.21305846     0.34900
H3302       H  0.84298221  0.96405540  0.24245138     0.40000
H3303       H  0.94933495  0.91127698  0.13753556     0.39600
H3304       H  0.96388014  0.94933014  0.14016375     0.34500
C3305       C  0.63233626  0.89076143  0.19635498    -0.27200
C3306       C  0.60675257  0.91143880  0.20642332    -0.15300
C3307       C  0.61354283  0.94418747  0.20942748     0.35300
C3308       C  0.64477633  0.95614421  0.20057219    -0.26700
C3309       C  0.66987456  0.93562733  0.18988283    -0.15900
C3310       C  0.66408092  0.90243982  0.18940858     0.36400
N3311       N  0.69032321  0.88056292  0.18244035    -0.90200
H3312       H  0.62810046  0.86515183  0.19481605     0.17500
H3313       H  0.64914499  0.98177621  0.20098118     0.17500
N3314       N  0.58924918  0.96514222  0.22263821    -0.89200
H3315       H  0.69416029  0.86682937  0.20373403     0.34900
H3316       H  0.68241194  0.86462669  0.16436259     0.40000
H3317       H  0.58532777  0.98375020  0.20578366     0.39600
H3318       H  0.59923329  0.97464898  0.24412750     0.34500
C3319       C  0.87690427  0.53532222  0.16545432    -0.27200
C3320       C  0.84515816  0.54549297  0.17554023    -0.15300
C3321       C  0.84333880  0.56884467  0.20058803     0.35300
C3322       C  0.87240273  0.58132590  0.21401746    -0.26700
C3323       C  0.90389973  0.57102720  0.20376426    -0.15900
C3324       C  0.90598319  0.54718191  0.17985756     0.36400
N3325       N  0.93754504  0.53638723  0.16869687    -0.90200
H3326       H  0.87950293  0.51928782  0.14494314     0.17500
H3327       H  0.87029228  0.59996688  0.23237742     0.17500
N3328       N  0.81265556  0.58155529  0.21207972    -0.89200
H3329       H  0.93903884  0.54005309  0.14319630     0.34900
H3330       H  0.93885537  0.51183378  0.17338764     0.40000
H3331       H  0.79847488  0.56290258  0.22218670     0.39600
H3332       H  0.80023100  0.59190670  0.19216770     0.34500
C3333       C  0.65633307  0.57875680  0.20447271    -0.27200
C3334       C  0.65534834  0.55682861  0.17862166    -0.15300
C3335       C  0.62406802  0.54512376  0.16812035     0.35300
C3336       C  0.59494329  0.55541011  0.18373168    -0.26700
C3337       C  0.59603690  0.57797543  0.20900640    -0.15900
C3338       C  0.62732267  0.58973662  0.21930954     0.36400
N3339       N  0.62992643  0.61369919  0.24431706    -0.90200
H3340       H  0.67979057  0.58808759  0.21297870     0.17500
H3341       H  0.57129669  0.54697265  0.17479443     0.17500
N3342       N  0.62142773  0.52347107  0.14098187    -0.89200
H3343       H  0.64112839  0.63398691  0.23380777     0.34900
H3344       H  0.64567394  0.60513193  0.26266726     0.40000
H3345       H  0.60670326  0.53415284  0.12292645     0.39600
H3346       H  0.60935906  0.50268572  0.14915311     0.34500
C3347       C  0.78750434  0.86981597  0.08347243    -0.27200
C3348       C  0.80211044  0.89893073  0.07336124    -0.15300
C3349       C  0.82422106  0.89952408  0.04670641     0.35300
C3350       C  0.83165812  0.87099602  0.03078798    -0.26700
C3351       C  0.81785160  0.84165524  0.04149658    -0.15900
C3352       C  0.79515315  0.84122823  0.06784467     0.36400
N3353       N  0.78073380  0.81187720  0.07970713    -0.90200
H3354       H  0.76997026  0.86910131  0.10374095     0.17500
H3355       H  0.84938120  0.87186404  0.01072043     0.17500
N3356       N  0.84012518  0.92871680  0.03654415    -0.89200
H3357       H  0.75507108  0.81389501  0.07835361     0.34900
H3358       H  0.78709561  0.80903001  0.10451956     0.40000
H3359       H  0.83465411  0.93269827  0.01167246     0.39600
H3360       H  0.86563065  0.92560334  0.03857589     0.34500
C3361       C  0.84512622  0.63758531  0.07943589    -0.27200
C3362       C  0.82328577  0.66315357  0.07329672    -0.15300
C3363       C  0.79047839  0.66065263  0.08467383     0.35300
C3364       C  0.77930462  0.63107915  0.09772291    -0.26700
C3365       C  0.80032632  0.60433481  0.09883275    -0.15900
C3366       C  0.83392908  0.60831178  0.09140617     0.36400
N3367       N  0.85684112  0.58252590  0.09549502    -0.90200
H3368       H  0.87112289  0.63939274  0.07323941     0.17500
H3369       H  0.75376457  0.62846629  0.10532011     0.17500
N3370       N  0.76856356  0.68745899  0.08212569    -0.89200
H3371       H  0.87527129  0.58994249  0.11177239     0.34900
H3372       H  0.86788956  0.57803210  0.07264227     0.40000
H3373       H  0.77753714  0.70530750  0.09772742     0.39600
H3374       H  0.74508913  0.68123931  0.09097518     0.34500
C3375       C  0.83771226  0.86705040  0.42842307    -0.27200
C3376       C  0.81675853  0.84521781  0.44480940    -0.15300
C3377       C  0.78605402  0.85594597  0.45620809     0.35300
C3378       C  0.77703248  0.88812982  0.45142513    -0.26700
C3379       C  0.79677821  0.90944852  0.43304259    -0.15900
C3380       C  0.82768167  0.89855021  0.42170706     0.36400
N3381       N  0.84877136  0.91927306  0.40268304    -0.90200
H3382       H  0.86200836  0.85950982  0.42045827     0.17500
H3383       H  0.75392871  0.89619097  0.46105081     0.17500
N3384       N  0.76368554  0.83455208  0.47258162    -0.89200
H3385       H  0.85316632  0.90841299  0.37992648     0.34900
H3386       H  0.87133562  0.92127717  0.41492698     0.40000
H3387       H  0.77491672  0.82554176  0.49370919     0.39600
H3388       H  0.75914681  0.81520467  0.45708453     0.34500
C3389       C  0.81196666  0.65312038  0.41843312    -0.27200
C3390       C  0.81650730  0.65535049  0.45222237    -0.15300
C3391       C  0.81437765  0.62732516  0.47186989     0.35300
C3392       C  0.80563110  0.59779363  0.45766688    -0.26700
C3393       C  0.80090144  0.59537640  0.42358550    -0.15900
C3394       C  0.80511220  0.62372369  0.40374042     0.36400
N3395       N  0.80225178  0.62332365  0.36846606    -0.90200
H3396       H  0.81550215  0.67416310  0.40292183     0.17500
H3397       H  0.80318197  0.57671743  0.47325256     0.17500
N3398       N  0.82202810  0.62865658  0.50618519    -0.89200
H3399       H  0.82437741  0.63196975  0.35831172     0.34900
H3400       H  0.78359365  0.63915921  0.36149791     0.40000
H3401       H  0.84163555  0.61307900  0.51069757     0.39600
H3402       H  0.79969478  0.62093898  0.01979909     0.34500
C3403       C  0.89409246  0.81260082  0.37010368    -0.27200
C3404       C  0.91553382  0.80411897  0.39577854    -0.15300
C3405       C  0.94858169  0.79693648  0.38814433     0.35300
C3406       C  0.95968711  0.79916861  0.35543273    -0.26700
C3407       C  0.93946987  0.81147731  0.33049397    -0.15900
C3408       C  0.90603346  0.81718679  0.33782607     0.36400
N3409       N  0.88450434  0.82911957  0.31276637    -0.90200
H3410       H  0.86817157  0.81654471  0.37529540     0.17500
H3411       H  0.98469398  0.79280203  0.34975435     0.17500
N3412       N  0.97117502  0.78715490  0.41322083    -0.89200
H3413       H  0.87499390  0.85094652  0.32084385     0.34900
H3414       H  0.86481505  0.81300082  0.31047039     0.40000
H3415       H  0.96090298  0.76751611  0.42569773     0.39600
H3416       H  0.97309915  0.80576940  0.43015573     0.34500
C3417       C  0.96849700  0.81112956  0.12292829    -0.27200
C3418       C  0.95030893  0.82949527  0.14537801    -0.15300
C3419       C  0.91988939  0.84232433  0.13539391     0.35300
C3420       C  0.90842998  0.83698113  0.10346839    -0.26700
C3421       C  0.92650548  0.81845909  0.08102681    -0.15900
C3422       C  0.95756376  0.80667928  0.09045606     0.36400
N3423       N  0.97795177  0.78954467  0.06779419    -0.90200
H3424       H  0.99075960  0.79954609  0.13079035     0.17500
H3425       H  0.88405664  0.84549819  0.09689329     0.17500
N3426       N  0.89969022  0.85947129  0.15824605    -0.89200
H3427       H  0.98228478  0.80422872  0.04722271     0.34900
H3428       H  0.96526472  0.76923245  0.05987161     0.40000
H3429       H  0.87745504  0.84688770  0.16108669     0.39600
H3430       H  0.89414634  0.88169355  0.14775232     0.34500
C3431       C  0.91468001  0.72353693  0.37641309    -0.27200
C3432       C  0.92409357  0.70997089  0.40703419    -0.15300
C3433       C  0.94512979  0.68353751  0.40717222     0.35300
C3434       C  0.95607643  0.67100429  0.37717424    -0.26700
C3435       C  0.94661153  0.68443026  0.34647047    -0.15900
C3436       C  0.92572302  0.71102902  0.34627864     0.36400
N3437       N  0.91367394  0.72382809  0.31579929    -0.90200
H3438       H  0.89698952  0.74281566  0.37567911     0.17500
H3439       H  0.97197479  0.65023053  0.37802160     0.17500
N3440       N  0.95350923  0.66787758  0.43752615    -0.89200
H3441       H  0.92011608  0.74806754  0.31458368     0.34900
H3442       H  0.88790915  0.72217057  0.31612206     0.40000
H3443       H  0.97921095  0.66693223  0.43912408     0.39600
H3444       H  0.94467821  0.64431917  0.43656338     0.34500
C3445       C  0.95506264  0.69069691  0.09470050    -0.27200
C3446       C  0.93522859  0.71777384  0.09687080    -0.15300
C3447       C  0.92795075  0.73053097  0.12847143     0.35300
C3448       C  0.93933136  0.71526627  0.15702802    -0.26700
C3449       C  0.95644785  0.68650653  0.15495499    -0.15900
C3450       C  0.96510979  0.67451670  0.12327884     0.36400
N3451       N  0.98357408  0.64551646  0.11983668    -0.90200
H3452       H  0.96019759  0.68023896  0.07083989     0.17500
H3453       H  0.93243300  0.72467060  0.18091851     0.17500
N3454       N  0.90612149  0.75718072  0.13191211    -0.89200
H3455       H  0.00491395  0.65059394  0.10613548     0.34900
H3456       H  0.96931932  0.62925608  0.10642781     0.40000
H3457       H  0.91741043  0.77383374  0.14729027     0.39600
H3458       H  0.88488989  0.74909177  0.14422500     0.34500
C3459       C  0.67922332  0.87327341  0.47496382    -0.27200
C3460       C  0.68761128  0.84495510  0.45779121    -0.15300
C3461       C  0.70214044  0.84807052  0.42643813     0.35300
C3462       C  0.70935634  0.87859159  0.41392981    -0.26700
C3463       C  0.70148217  0.90707603  0.43126416    -0.15900
C3464       C  0.68655377  0.90401575  0.46250427     0.36400
N3465       N  0.67748022  0.93137614  0.48152081    -0.90200
H3466       H  0.66547382  0.87150516  0.49788987     0.17500
H3467       H  0.72071819  0.87981530  0.38970705     0.17500
N3468       N  0.70691830  0.82103616  0.40536224    -0.89200
H3469       H  0.66144208  0.94544229  0.46750750     0.34900
H3470       H  0.69880488  0.94472643  0.48633377     0.40000
H3471       H  0.68400444  0.81014241  0.40131576     0.39600
H3472       H  0.72210028  0.80448516  0.41718676     0.34500
C3473       C  0.72520503  0.62424571  0.41938619    -0.27200
C3474       C  0.71310168  0.59523887  0.43331064    -0.15300
C3475       C  0.69040602  0.59701213  0.45953802     0.35300
C3476       C  0.67877337  0.62700310  0.46921488    -0.26700
C3477       C  0.69071169  0.65592082  0.45498377    -0.15900
C3478       C  0.71486494  0.65435354  0.43043456     0.36400
N3479       N  0.72653366  0.68301104  0.41452908    -0.90200
H3480       H  0.74087793  0.62361922  0.39788893     0.17500
H3481       H  0.65891013  0.62750303  0.48710504     0.17500
N3482       N  0.67669327  0.56896944  0.47500446    -0.89200
H3483       H  0.72146366  0.68133163  0.38933382     0.34900
H3484       H  0.75210340  0.68421734  0.41737542     0.40000
H3485       H  0.69599085  0.55568686  0.48515794     0.39600
H3486       H  0.66485352  0.55521077  0.45710425     0.34500
C3487       C  0.70934483  0.85489877  0.03342725    -0.27200
C3488       C  0.68991206  0.83496374  0.05377031    -0.15300
C3489       C  0.67933958  0.84712876  0.08445871     0.35300
C3490       C  0.68671948  0.87862597  0.09298655    -0.26700
C3491       C  0.70538934  0.89881346  0.07239771    -0.15900
C3492       C  0.71693616  0.88675878  0.04219042     0.36400
N3493       N  0.73550447  0.90646790  0.01982490    -0.90200
H3494       H  0.71669376  0.84622305  0.00979064     0.17500
H3495       H  0.67732745  0.88788802  0.11596067     0.17500
N3496       N  0.66039740  0.82825812  0.10736544    -0.89200
H3497       H  0.75683531  0.91436857  0.03145753     0.34900
H3498       H  0.72156705  0.92674369  0.01446971     0.40000
H3499       H  0.67249466  0.80651622  0.11131115     0.39600
H3500       H  0.63719210  0.82396218  0.09729752     0.34500
C3501       C  0.66597879  0.62857261  0.06363651    -0.27200
C3502       C  0.68714822  0.64925156  0.04567085    -0.15300
C3503       C  0.71857043  0.63710376  0.03620819     0.35300
C3504       C  0.72735428  0.60528046  0.04546450    -0.26700
C3505       C  0.70559729  0.58530771  0.06361146    -0.15900
C3506       C  0.67475366  0.59748147  0.07257813     0.36400
N3507       N  0.65231557  0.57848569  0.09202043    -0.90200
H3508       H  0.64154620  0.63634311  0.07057208     0.17500
H3509       H  0.75161238  0.59638387  0.03931626     0.17500
N3510       N  0.74185526  0.65569214  0.01719333    -0.89200
H3511       H  0.63026484  0.57619491  0.07892735     0.34900
H3512       H  0.64723504  0.59094133  0.11373004     0.40000
H3513       H  0.73268406  0.67829062  0.01141445     0.39600
H3514       H  0.74559175  0.64391223  0.99485028     0.34500
C3515       C  0.58494823  0.78108004  0.37794093    -0.27200
C3516       C  0.57407178  0.79278085  0.40871983    -0.15300
C3517       C  0.54822100  0.81482577  0.40932089     0.35300
C3518       C  0.53281246  0.82358674  0.37962753    -0.26700
C3519       C  0.54333138  0.81141661  0.34878366    -0.15900
C3520       C  0.56974229  0.78969989  0.34827689     0.36400
N3521       N  0.58329262  0.77791865  0.31804624    -0.90200
H3522       H  0.60661144  0.76611040  0.37670020     0.17500
H3523       H  0.51350033  0.84142580  0.38052455     0.17500
N3524       N  0.54030661  0.83114828  0.43927624    -0.89200
H3525       H  0.59093535  0.79742025  0.30353296     0.34900
H3526       H  0.56478496  0.76541276  0.30558876     0.40000
H3527       H  0.51518978  0.82830418  0.44418172     0.39600
H3528       H  0.54479952  0.85559776  0.43552269     0.34500
C3529       C  0.58382280  0.77060160  0.12867559    -0.27200
C3530       C  0.57595197  0.78525335  0.09818557    -0.15300
C3531       C  0.55514519  0.81172958  0.09765625     0.35300
C3532       C  0.54190708  0.82266030  0.12714077    -0.26700
C3533       C  0.54842129  0.80745364  0.15773907    -0.15900
C3534       C  0.56973020  0.78115916  0.15840678     0.36400
N3535       N  0.57903681  0.76680922  0.18913768    -0.90200
H3536       H  0.60151384  0.75125284  0.12947610     0.17500
H3537       H  0.52662662  0.84387154  0.12599432     0.17500
N3538       N  0.55004492  0.82955331  0.06777542    -0.89200
H3539       H  0.60466145  0.76881818  0.19140209     0.34900
H3540       H  0.57303346  0.74246439  0.18833360     0.40000
H3541       H  0.52469109  0.83179389  0.06407934     0.39600
H3542       H  0.55962672  0.85261273  0.07109940     0.34500
C3543       C  0.59398293  0.70328121  0.37335472    -0.27200
C3544       C  0.57581185  0.70885129  0.40264326    -0.15300
C3545       C  0.54113510  0.70902004  0.40098408     0.35300
C3546       C  0.52574610  0.70239253  0.37064495    -0.26700
C3547       C  0.54398509  0.69415365  0.34247949    -0.15900
C3548       C  0.57838843  0.69655760  0.34350383     0.36400
N3549       N  0.59765366  0.69145065  0.31430162    -0.90200
H3550       H  0.62071663  0.70397110  0.37337861     0.17500
H3551       H  0.49951577  0.70337073  0.36913045     0.17500
N3552       N  0.52169910  0.71565493  0.42981814    -0.89200
H3553       H  0.61441632  0.67308793  0.31903052     0.34900
H3554       H  0.61127845  0.71233159  0.30951615     0.40000
H3555       H  0.52485955  0.69657181  0.44631877     0.39600
H3556       H  0.99567426  0.72818413  0.41522288     0.34500
C3557       C  0.53567108  0.70491490  0.13931302    -0.27200
C3558       C  0.55282613  0.68343596  0.15963104    -0.15300
C3559       C  0.58196645  0.66950297  0.14765551     0.35300
C3560       C  0.59302012  0.67656495  0.11594555    -0.26700
C3561       C  0.57523845  0.69660642  0.09464970    -0.15900
C3562       C  0.54576207  0.71045577  0.10623103     0.36400
N3563       N  0.52699698  0.73103175  0.08513532    -0.90200
H3564       H  0.51364909  0.71619686  0.14868003     0.17500
H3565       H  0.61623890  0.66645358  0.10815217     0.17500
N3566       N  0.60027631  0.64745309  0.16756332    -0.89200
H3567       H  0.50652128  0.73943098  0.09808226     0.34900
H3568       H  0.51791111  0.71711213  0.06583369     0.40000
H3569       H  0.62423515  0.65647039  0.17026072     0.39600
H3570       H  0.60180470  0.62577617  0.15488384     0.34500
O3571       O  0.58110568  0.71217426  0.53541613    -0.81000
O3572       O  0.57723940  0.78033702  0.96726127    -0.81100
O3573       O  0.62604762  0.77063785  0.57341692    -0.81100
O3574       O  0.62132091  0.72030544  0.92959857    -0.81000
O3575       O  0.58305109  0.77587291  0.54038643    -0.81100
O3576       O  0.57848812  0.71544393  0.96312066    -0.81100
O3577       O  0.61911786  0.78067495  0.93204707    -0.81000
O3578       O  0.62483353  0.71103736  0.56782679    -0.81100
C3579       C  0.59400192  0.70739300  0.56379051     1.08600
C3580       C  0.58840737  0.78349482  0.93772146     1.08500
C3581       C  0.59561352  0.77644427  0.56923029     1.08700
C3582       C  0.59088299  0.71412851  0.93410637     1.08500
O3583       O  0.63979508  0.68154952  0.96564990    -0.81100
O3584       O  0.64370219  0.81125908  0.53716341    -0.81100
O3585       O  0.68602226  0.70608825  0.53279294    -0.81100
O3586       O  0.68072042  0.78742840  0.96577599    -0.81000
O3587       O  0.63617870  0.81701398  0.97212565    -0.81100
O3588       O  0.64115062  0.67641160  0.52683593    -0.81100
O3589       O  0.68277805  0.71468960  0.96348198    -0.81000
O3590       O  0.68702365  0.77893530  0.53759308    -0.81100
Co3591     Co  0.61149433  0.70181954  0.49773120     1.51500
Co3592     Co  0.60903800  0.79161158  0.00336579     1.51700
Co3593     Co  0.65619698  0.74222792  0.54774196     1.51600
Co3594     Co  0.65141721  0.75044825  0.95250254     1.51500
O3595       O  0.63433675  0.74676401  0.50095037    -1.43000
C3596       C  0.67049385  0.68625606  0.96177265     1.08600
C3597       C  0.67409200  0.80643982  0.54285327     1.08700
C3598       C  0.67170235  0.67848654  0.53362337     1.08600
C3599       C  0.66650668  0.81490918  0.96528667     1.08600
O3600       O  0.88235777  0.73045906  0.57636571    -0.81000
O3601       O  0.87537912  0.77632198  0.92980540    -0.81100
O3602       O  0.91581206  0.71968567  0.96513914    -0.81100
O3603       O  0.91692438  0.79847832  0.52647666    -0.81000
O3604       O  0.87228357  0.72709491  0.93258266    -0.81100
O3605       O  0.87731649  0.79161438  0.56440818    -0.81100
O3606       O  0.91294950  0.80740480  0.95530567    -0.81000
O3607       O  0.92269576  0.72365633  0.53965897    -0.81100
C3608       C  0.91248106  0.72558313  0.56966261     1.08600
C3609       C  0.90013069  0.79618424  0.92882009     1.08500
C3610       C  0.90211816  0.71888306  0.93657411     1.08700
C3611       C  0.90547245  0.80192886  0.55572691     1.08500
O3612       O  0.81761337  0.78414230  0.53224502    -0.81100
O3613       O  0.81629919  0.71387346  0.96102077    -0.81100
O3614       O  0.86529305  0.68591130  0.54177149    -0.81100
O3615       O  0.85769079  0.81730405  0.97433620    -0.81000
O3616       O  0.81636097  0.78904560  0.95381547    -0.81100
O3617       O  0.82093407  0.71609642  0.54764598    -0.81100
O3618       O  0.85843349  0.81375814  0.50936492    -0.81000
O3619       O  0.85785307  0.68273909  0.97762894    -0.81100
Co3620     Co  0.84897276  0.75511852  0.55217965     1.51500
Co3621     Co  0.84562231  0.75176012  0.96375211     1.51700
Co3622     Co  0.89132282  0.70580614  0.50601859     1.51600
Co3623     Co  0.89075249  0.78208661  0.98815013     1.51500
O3624       O  0.86728079  0.74759892  0.50708617    -1.43000
C3625       C  0.83087415  0.81127258  0.52629839     1.08600
C3626       C  0.82918236  0.68627853  0.96542237     1.08700
C3627       C  0.83627122  0.68992772  0.55287829     1.08600
C3628       C  0.83037197  0.81613656  0.95791604     1.08600
O3629       O  0.71500651  0.55479614  0.67289371    -0.81000
O3630       O  0.80292411  0.95842016  0.66317300    -0.81100
O3631       O  0.68916563  0.96066593  0.64126931    -0.81100
O3632       O  0.82100101  0.51958888  0.62746352    -0.81000
O3633       O  0.72805705  0.95120091  0.67855998    -0.81100
O3634       O  0.78601842  0.53740370  0.66680575    -0.81100
O3635       O  0.82777969  0.98378827  0.62016722    -0.81000
O3636       O  0.68556795  0.52508134  0.63736465    -0.81100
C3637       C  0.68706615  0.54555145  0.66136793     1.08600
C3638       C  0.82902145  0.96658394  0.64735153     1.08500
C3639       C  0.69804449  0.95056880  0.66959595     1.08700
C3640       C  0.81548391  0.53297861  0.65579045     1.08500
O3641       O  0.76024216  0.56878390  0.62221385    -0.81100
O3642       O  0.73319797  0.92540906  0.61602081    -0.81100
O3643       O  0.71159045  0.52573009  0.56946027    -0.81100
O3644       O  0.79365854  0.95351586  0.57595506    -0.81000
O3645       O  0.78564354  0.92417336  0.62107677    -0.81100
O3646       O  0.72854586  0.55959862  0.60788602    -0.81100
O3647       O  0.80189724  0.54881485  0.59298269    -0.81000
O3648       O  0.71403982  0.95635026  0.57544251    -0.81100
Co3649     Co  0.74154452  0.52913863  0.64557300     1.52700
Co3650     Co  0.75932079  0.95693644  0.64179979     1.51700
Co3651     Co  0.70486876  0.49193175  0.60414643     1.51600
Co3652     Co  0.79445587  0.50143370  0.58877898     1.51500
O3653       O  0.75378019  0.49624457  0.61726465    -1.43000
C3654       C  0.78711510  0.57259735  0.60559718     1.08600
C3655       C  0.71967568  0.92860203  0.58792450     1.08700
C3656       C  0.71705644  0.55431876  0.57896119     1.08600
C3657       C  0.79514989  0.92691583  0.59153585     1.08600
O3658       O  0.67937751  0.53473534  0.86609216    -0.81000
O3659       O  0.81625310  0.96939291  0.86724278    -0.81100
O3660       O  0.78430868  0.52841459  0.82015092    -0.81100
O3661       O  0.70888005  0.96909088  0.82318984    -0.81000
O3662       O  0.81740413  0.52511574  0.86340334    -0.81100
O3663       O  0.67588487  0.97468019  0.86649831    -0.81100
O3664       O  0.78408201  0.96689222  0.82363835    -0.81000
O3665       O  0.71177500  0.53250063  0.82224855    -0.81100
C3666       C  0.68409868  0.53927931  0.83533046     1.08600
C3667       C  0.81281606  0.96441625  0.83666497     1.08500
C3668       C  0.81303522  0.53059415  0.83285885     1.08700
C3669       C  0.67974524  0.96850724  0.83626014     1.08500
O3670       O  0.71122048  0.96634901  0.92658632    -0.81100
O3671       O  0.78392407  0.53927751  0.92412637    -0.81100
O3672       O  0.72119101  0.56935261  0.88206401    -0.81100
O3673       O  0.77574527  0.93361585  0.88599039    -0.81000
O3674       O  0.78008396  0.96728828  0.92798369    -0.81100
O3675       O  0.71644499  0.53826481  0.92638310    -0.81100
O3676       O  0.71287921  0.93547129  0.88274518    -0.81000
O3677       O  0.78304526  0.56689870  0.87781671    -0.81100
Co3678     Co  0.69995169  0.50321878  0.89741905     1.51500
Co3679     Co  0.79383409  0.49967774  0.89743090     1.51700
Co3680     Co  0.74954142  0.54444664  0.85091568     1.51600
Co3681     Co  0.74581612  0.95596698  0.85367954     1.51500
O3682       O  0.74690976  0.50018206  0.87570423    -1.43000
C3683       C  0.70859095  0.93847002  0.91336674     1.08600
C3684       C  0.78801132  0.56591879  0.90847789     1.08700
C3685       C  0.71663271  0.56618664  0.91300175     1.08600
C3686       C  0.78246950  0.93895198  0.91618067     1.08600
O3687       O  0.53105936  0.68176303  0.71480950    -0.81000
O3688       O  0.95624569  0.67791595  0.78801510    -0.81100
O3689       O  0.96628291  0.63695229  0.68203269    -0.81100
O3690       O  0.52446823  0.64153735  0.82165300    -0.81000
O3691       O  0.96059990  0.67831930  0.71523549    -0.81100
O3692       O  0.52592810  0.68246752  0.78665246    -0.81100
O3693       O  0.96139055  0.63607001  0.82069070    -0.81000
O3694       O  0.53152131  0.63963093  0.68221461    -0.81100
C3695       C  0.53676402  0.66925619  0.68677559     1.08600
C3696       C  0.95383335  0.66509713  0.81665695     1.08500
C3697       C  0.96136709  0.66662465  0.68614955     1.08700
C3698       C  0.52864052  0.67141090  0.81584989     1.08500
O3699       O  0.56587470  0.62526303  0.78570029    -0.81100
O3700       O  0.92713015  0.61742178  0.71884022    -0.81100
O3701       O  0.53724581  0.58079912  0.71781428    -0.81100
O3702       O  0.96310391  0.57722751  0.78598147    -0.81000
O3703       O  0.92587537  0.61567620  0.78086350    -0.81100
O3704       O  0.56852108  0.62407446  0.72339862    -0.81100
O3705       O  0.53591157  0.58126614  0.78558120    -0.81000
O3706       O  0.96242442  0.57732284  0.71774108    -0.81100
Co3707     Co  0.54302631  0.65305718  0.75249459     1.51500
Co3708     Co  0.94715369  0.64776562  0.75082167     1.51700
Co3709     Co  0.50001632  0.60902457  0.70375553     1.51600
Co3710     Co  0.99588682  0.61037963  0.79943641     1.51500
O3711       O  0.99545546  0.63028831  0.75198156    -1.43000
C3712       C  0.56357407  0.59516836  0.78977583     1.08600
C3713       C  0.93299924  0.58794597  0.71446338     1.08700
C3714       C  0.56569640  0.59446604  0.71720981     1.08600
C3715       C  0.93330257  0.58687086  0.78777096     1.08600
O3716       O  0.53652578  0.85825161  0.68250302    -0.81000
O3717       O  0.95825952  0.85983226  0.81158063    -0.81100
O3718       O  0.52585629  0.81745402  0.78932632    -0.81100
O3719       O  0.96504950  0.82437786  0.70421460    -0.81000
O3720       O  0.52333563  0.85961308  0.82135671    -0.81100
O3721       O  0.97571613  0.86664936  0.67333510    -0.81100
O3722       O  0.95607384  0.82036557  0.77510962    -0.81000
O3723       O  0.53259420  0.81592701  0.71571692    -0.81100
C3724       C  0.53799828  0.82821692  0.68703618     1.08600
C3725       C  0.95137465  0.83094680  0.80419393     1.08500
C3726       C  0.52803825  0.82986530  0.81800128     1.08700
C3727       C  0.96514795  0.83812061  0.67622397     1.08500
O3728       O  0.97549472  0.92501235  0.71073865    -0.81100
O3729       O  0.53360329  0.91786807  0.78548737    -0.81100
O3730       O  0.57482655  0.86981471  0.72332226    -0.81100
O3731       O  0.92462202  0.88093133  0.76990878    -0.81000
O3732       O  0.95922147  0.92086949  0.77737645    -0.81100
O3733       O  0.54862003  0.91551802  0.71873870    -0.81100
O3734       O  0.93574869  0.88827800  0.70845973    -0.81000
O3735       O  0.56576054  0.87500374  0.78532576    -0.81100
Co3736     Co  0.50899389  0.89217507  0.70191677     1.51500
Co3737     Co  0.49509055  0.88912151  0.79516063     1.51700
Co3738     Co  0.54475440  0.84498098  0.75306957     1.51600
Co3739     Co  0.95016033  0.85317878  0.73988775     1.51500
O3740       O  0.50006734  0.86996583  0.74773581    -1.43000
C3741       C  0.94588214  0.91700068  0.70398715     1.08600
C3742       C  0.56225842  0.90513292  0.78823666     1.08700
C3743       C  0.57536665  0.89951611  0.71698332     1.08600
C3744       C  0.92963886  0.90992921  0.77681426     1.08600
C3745       C  0.84016308  0.93498076  0.79039847    -0.27200
C3746       C  0.84312236  0.95453522  0.81813265    -0.15300
C3747       C  0.87549829  0.96053547  0.83066237     0.35300
C3748       C  0.90341545  0.94873528  0.81433490    -0.26700
C3749       C  0.90032083  0.92835708  0.78760049    -0.15900
C3750       C  0.86817785  0.92097916  0.77582969     0.36400
N3751       N  0.86372869  0.89838011  0.74973888    -0.90200
H3752       H  0.81589017  0.92886041  0.78116129     0.17500
H3753       H  0.92763242  0.95318568  0.82467827     0.17500
N3754       N  0.88061649  0.97621719  0.86154158    -0.89200
H3755       H  0.85052554  0.90943317  0.73077767     0.34900
H3756       H  0.84931235  0.87940472  0.75884909     0.40000
H3757       H  0.89957049  0.99295836  0.85826662     0.39600
H3758       H  0.89061837  0.95940183  0.87774550     0.34500
C3759       C  0.65257435  0.93028205  0.79871795    -0.27200
C3760       C  0.64956787  0.95670709  0.81931449    -0.15300
C3761       C  0.61700101  0.96614065  0.82922340     0.35300
C3762       C  0.58926160  0.95152141  0.81534622    -0.26700
C3763       C  0.59237750  0.92409074  0.79623499    -0.15900
C3764       C  0.62466265  0.91257054  0.78928467     0.36400
N3765       N  0.62958336  0.88144994  0.77551520    -0.90200
H3766       H  0.67688300  0.92104688  0.79303257     0.17500
H3767       H  0.56493039  0.95944481  0.82282020     0.17500
N3768       N  0.61067449  0.98811230  0.85551908    -0.89200
H3769       H  0.63975874  0.86696195  0.79394205     0.34900
H3770       H  0.64747948  0.88334713  0.75703939     0.40000
H3771       H  0.62331264  0.00949261  0.85153862     0.39600
H3772       H  0.61620732  0.48036964  0.87588208     0.34500
C3773       C  0.85746466  0.56889205  0.83586010    -0.27200
C3774       C  0.84174829  0.54568168  0.81666265    -0.15300
C3775       C  0.85880793  0.53276233  0.78964623     0.35300
C3776       C  0.89112761  0.54360026  0.78224202    -0.26700
C3777       C  0.90612434  0.56748713  0.80131383    -0.15900
C3778       C  0.88907559  0.57936801  0.82902065     0.36400
N3779       N  0.90302981  0.60250187  0.85082747    -0.90200
H3780       H  0.84552630  0.57814303  0.85773424     0.17500
H3781       H  0.90404741  0.53397507  0.76113802     0.17500
N3782       N  0.84432611  0.50782678  0.77070389    -0.89200
H3783       H  0.90418883  0.62449109  0.83859006     0.34900
H3784       H  0.92658800  0.59499761  0.85776484     0.40000
H3785       H  0.86131283  0.48916105  0.77079409     0.39600
H3786       H  0.84250726  0.51592222  0.74637448     0.34500
C3787       C  0.63807143  0.53950066  0.79428839    -0.27200
C3788       C  0.65743599  0.55587827  0.81747641    -0.15300
C3789       C  0.64533375  0.58437517  0.83122248     0.35300
C3790       C  0.61407076  0.59535652  0.82281240    -0.26700
C3791       C  0.59387770  0.57858604  0.80080030    -0.15900
C3792       C  0.60569404  0.54993325  0.78682009     0.36400
N3793       N  0.58500531  0.53152945  0.76539218    -0.90200
H3794       H  0.64703934  0.51720449  0.78424892     0.17500
H3795       H  0.60535001  0.61722422  0.83398353     0.17500
N3796       N  0.66458843  0.60193611  0.85460392    -0.89200
H3797       H  0.56467784  0.52362068  0.77924081     0.34900
H3798       H  0.59742968  0.51090091  0.75813612     0.40000
H3799       H  0.65109479  0.60339428  0.87659004     0.39600
H3800       H  0.66808054  0.62520313  0.84546383     0.34500
C3801       C  0.90014004  0.95599027  0.70691005    -0.27200
C3802       C  0.92263217  0.93892048  0.68759927    -0.15300
C3803       C  0.91613970  0.93499651  0.65374021     0.35300
C3804       C  0.88577193  0.94496241  0.64067654    -0.26700
C3805       C  0.86168022  0.95860983  0.66111476    -0.15900
C3806       C  0.86961500  0.96563343  0.69398984     0.36400
N3807       N  0.84698585  0.98325108  0.71396238    -0.90200
H3808       H  0.90570996  0.96080551  0.73238768     0.17500
H3809       H  0.88046089  0.94075339  0.61487906     0.17500
N3810       N  0.94000134  0.91997140  0.63284209    -0.89200
H3811       H  0.85938979  0.00350429  0.72264355     0.34900
H3812       H  0.84037758  0.96914856  0.73426080     0.40000
H3813       H  0.94661410  0.93636404  0.61431778     0.39600
H3814       H  0.92879644  0.90043651  0.62138536     0.34500
C3815       C  0.63295146  0.89237843  0.69629295    -0.27200
C3816       C  0.60779091  0.91334949  0.70681202    -0.15300
C3817       C  0.61538261  0.94592532  0.71011622     0.35300
C3818       C  0.64684452  0.95745457  0.70118774    -0.26700
C3819       C  0.67151480  0.93667623  0.69002859    -0.15900
C3820       C  0.66492256  0.90361426  0.68913608     0.36400
N3821       N  0.69058489  0.88140614  0.68125699    -0.90200
H3822       H  0.62816144  0.86688065  0.69447196     0.17500
H3823       H  0.65170438  0.98299698  0.70191600     0.17500
N3824       N  0.59167383  0.96714960  0.72381054    -0.89200
H3825       H  0.69410881  0.86675108  0.70195158     0.34900
H3826       H  0.68230906  0.86651643  0.66241877     0.40000
H3827       H  0.58804926  0.98601694  0.70718767     0.39600
H3828       H  0.60215010  0.97609349  0.74532645     0.34500
C3829       C  0.87714166  0.53452217  0.66370481    -0.27200
C3830       C  0.84534852  0.54390746  0.67465720    -0.15300
C3831       C  0.84361447  0.56544710  0.70138034     0.35300
C3832       C  0.87271255  0.57746078  0.71521992    -0.26700
C3833       C  0.90422704  0.56838177  0.70385056    -0.15900
C3834       C  0.90629741  0.54599960  0.67840448     0.36400
N3835       N  0.93784442  0.53653945  0.66589232    -0.90200
H3836       H  0.87972569  0.51925329  0.64248528     0.17500
H3837       H  0.87060654  0.59498295  0.73471683     0.17500
N3838       N  0.81292638  0.57672942  0.71438042    -0.89200
H3839       H  0.93888196  0.54236439  0.64078305     0.34900
H3840       H  0.93955908  0.51167199  0.66824164     0.40000
H3841       H  0.79919710  0.55714198  0.72312621     0.39600
H3842       H  0.80001115  0.58838468  0.69558009     0.34500
C3843       C  0.65667688  0.57937036  0.70145456    -0.27200
C3844       C  0.65553134  0.55702623  0.67596436    -0.15300
C3845       C  0.62422515  0.54519379  0.66575929     0.35300
C3846       C  0.59523264  0.55565705  0.68140229    -0.26700
C3847       C  0.59647077  0.57848596  0.70637918    -0.15900
C3848       C  0.62776755  0.59049055  0.71633459     0.36400
N3849       N  0.63047336  0.61477910  0.74101877    -0.90200
H3850       H  0.68017257  0.58885023  0.70968564     0.17500
H3851       H  0.57154458  0.54706235  0.67272341     0.17500
N3852       N  0.62140439  0.52311969  0.63898938    -0.89200
H3853       H  0.64180227  0.63488575  0.73027424     0.34900
H3854       H  0.64609712  0.60636685  0.75955555     0.40000
H3855       H  0.60663792  0.53357108  0.62083140     0.39600
H3856       H  0.60918725  0.50253809  0.64748020     0.34500
C3857       C  0.79138335  0.86837374  0.58566576    -0.27200
C3858       C  0.80452630  0.89769512  0.57432181    -0.15300
C3859       C  0.82463373  0.89852594  0.54603464     0.35300
C3860       C  0.83084079  0.87015545  0.52932202    -0.26700
C3861       C  0.81788117  0.84073052  0.54073546    -0.15900
C3862       C  0.79783848  0.83993945  0.56914750     0.36400
N3863       N  0.78500268  0.81034848  0.58211558    -0.90200
H3864       H  0.77558768  0.86743479  0.60730378     0.17500
H3865       H  0.84674149  0.87122844  0.50779042     0.17500
N3866       N  0.83908503  0.92792223  0.53438996    -0.89200
H3867       H  0.75929112  0.81206060  0.58330321     0.34900
H3868       H  0.79381611  0.80744561  0.60614859     0.40000
H3869       H  0.83127126  0.93173437  0.51013210     0.39600
H3870       H  0.86472636  0.92520601  0.53405514     0.34500
C3871       C  0.84541330  0.63817348  0.58076995    -0.27200
C3872       C  0.82352344  0.66351806  0.57404792    -0.15300
C3873       C  0.79123917  0.66171113  0.58692393     0.35300
C3874       C  0.77961052  0.63198248  0.59922977    -0.26700
C3875       C  0.80041488  0.60503285  0.59979851    -0.15900
C3876       C  0.83419546  0.60920271  0.59350825     0.36400
N3877       N  0.85724216  0.58394624  0.59965226    -0.90200
H3878       H  0.87142289  0.63995371  0.57462778     0.17500
H3879       H  0.75407950  0.62954248  0.60692974     0.17500
N3880       N  0.77065023  0.68957613  0.58744893    -0.89200
H3881       H  0.87477384  0.59229235  0.61643660     0.34900
H3882       H  0.86941982  0.57878405  0.57754532     0.40000
H3883       H  0.78166469  0.70620054  0.60318043     0.39600
H3884       H  0.74757582  0.68393315  0.59767229     0.34500
C3885       C  0.83808588  0.86900679  0.93165550    -0.27200
C3886       C  0.81662680  0.84732831  0.94747773    -0.15300
C3887       C  0.78569396  0.85830009  0.95809019     0.35300
C3888       C  0.77678536  0.89046856  0.95255077    -0.26700
C3889       C  0.79710901  0.91148341  0.93436977    -0.15900
C3890       C  0.82831408  0.90040180  0.92435289     0.36400
N3891       N  0.85007559  0.92085534  0.90599503    -0.90200
H3892       H  0.86259320  0.86139825  0.92444392     0.17500
H3893       H  0.75330211  0.89866717  0.96117263     0.17500
N3894       N  0.76296386  0.83717462  0.97429876    -0.89200
H3895       H  0.85524352  0.90972516  0.88353632     0.34900
H3896       H  0.87212313  0.92271593  0.91917156     0.40000
H3897       H  0.77362823  0.82861451  0.99592896     0.39600
H3898       H  0.75881291  0.81753149  0.95911631     0.34500
C3899       C  0.80907315  0.65482198  0.91883830    -0.27200
C3900       C  0.81366589  0.65693159  0.95269007    -0.15300
C3901       C  0.81157308  0.62876457  0.97212001     0.35300
C3902       C  0.80251734  0.59938635  0.95784042    -0.26700
C3903       C  0.79788269  0.59704756  0.92377196    -0.15900
C3904       C  0.80229798  0.62539094  0.90400810     0.36400
N3905       N  0.80030728  0.62478918  0.86867813    -0.90200
H3906       H  0.81282045  0.67587565  0.90339606     0.17500
H3907       H  0.80008476  0.57825859  0.97335337     0.17500
N3908       N  0.81981240  0.62971574  0.00629340    -0.89200
H3909       H  0.82282016  0.63300517  0.85902112     0.34900
H3910       H  0.78205402  0.64082693  0.86114468     0.40000
H3911       H  0.83957421  0.61416790  0.01019539     0.39600
H3912       H  0.80157011  0.62020566  0.51940428     0.34500
C3913       C  0.89170185  0.81567188  0.87179533    -0.27200
C3914       C  0.91332888  0.80420461  0.89602330    -0.15300
C3915       C  0.94510094  0.79411344  0.88661158     0.35300
C3916       C  0.95509652  0.79699720  0.85365140    -0.26700
C3917       C  0.93510116  0.81225670  0.83039091    -0.15900
C3918       C  0.90265979  0.82052792  0.83927957     0.36400
N3919       N  0.88128921  0.83506424  0.81551546    -0.90200
H3920       H  0.86650760  0.82161419  0.87830200     0.17500
H3921       H  0.97921711  0.78878002  0.84650308     0.17500
N3922       N  0.96748137  0.78066484  0.91004104    -0.89200
H3923       H  0.87416132  0.85742703  0.82446806     0.34900
H3924       H  0.86012333  0.82076559  0.81357338     0.40000
H3925       H  0.95631466  0.76068808  0.92098980     0.39600
H3926       H  0.97118937  0.79756429  0.92850678     0.34500
C3927       C  0.96634496  0.80738223  0.62395797    -0.27200
C3928       C  0.94842041  0.82467017  0.64737612    -0.15300
C3929       C  0.91716910  0.83644769  0.63897796     0.35300
C3930       C  0.90548087  0.83273396  0.60685334    -0.26700
C3931       C  0.92410818  0.81651627  0.58281133    -0.15900
C3932       C  0.95540714  0.80472171  0.59135395     0.36400
N3933       N  0.97620848  0.78950124  0.56761903    -0.90200
H3934       H  0.98853047  0.79533692  0.63118539     0.17500
H3935       H  0.88068249  0.84072363  0.60123717     0.17500
N3936       N  0.89642537  0.85043978  0.66363600    -0.89200
H3937       H  0.98041934  0.80560179  0.54816476     0.34900
H3938       H  0.96412432  0.76938641  0.55836540     0.40000
H3939       H  0.87516476  0.83625436  0.66587187     0.39600
H3940       H  0.88906262  0.87301710  0.65535453     0.34500
C3941       C  0.91194911  0.72250153  0.87601542    -0.27200
C3942       C  0.91931465  0.70796948  0.90669162    -0.15300
C3943       C  0.93720895  0.67949574  0.90725084     0.35300
C3944       C  0.94797881  0.66634460  0.87757825    -0.26700
C3945       C  0.94176872  0.68138635  0.84675129    -0.15900
C3946       C  0.92330382  0.70964270  0.84614757     0.36400
N3947       N  0.91450090  0.72428830  0.81542013    -0.90200
H3948       H  0.89622276  0.74332291  0.87506156     0.17500
H3949       H  0.96186408  0.64427938  0.87892773     0.17500
N3950       N  0.94302269  0.66294401  0.93774469    -0.89200
H3951       H  0.92360967  0.74772710  0.81521958     0.34900
H3952       H  0.88875278  0.72531249  0.81424206     0.40000
H3953       H  0.96849522  0.66009439  0.94039710     0.39600
H3954       H  0.93228696  0.64016527  0.93621511     0.34500
C3955       C  0.95435052  0.69134820  0.59601134    -0.27200
C3956       C  0.93311980  0.71741619  0.59840849    -0.15300
C3957       C  0.92451121  0.72898738  0.63017953     0.35300
C3958       C  0.93632846  0.71374856  0.65857467    -0.26700
C3959       C  0.95501787  0.68594812  0.65615918    -0.15900
C3960       C  0.96462334  0.67496872  0.62440090     0.36400
N3961       N  0.98412581  0.64665458  0.62066950    -0.90200
H3962       H  0.96048612  0.68170051  0.57201932     0.17500
H3963       H  0.92850653  0.72224386  0.68255493     0.17500
N3964       N  0.90120031  0.75439199  0.63389600    -0.89200
H3965       H  0.00534970  0.65256878  0.60714603     0.34900
H3966       H  0.97052844  0.63014631  0.60691609     0.40000
H3967       H  0.91137332  0.77125042  0.64979752     0.39600
H3968       H  0.88026089  0.74496728  0.64570974     0.34500
C3969       C  0.67108431  0.87424338  0.97025205    -0.27200
C3970       C  0.68218143  0.84572489  0.95495844    -0.15300
C3971       C  0.70142164  0.84853677  0.92621281     0.35300
C3972       C  0.71084699  0.87897727  0.91489005    -0.26700
C3973       C  0.70033653  0.90761843  0.93046391    -0.15900
C3974       C  0.67959204  0.90487769  0.95820942     0.36400
N3975       N  0.66467548  0.93236068  0.97292526    -0.90200
H3976       H  0.65443695  0.87266931  0.99121643     0.17500
H3977       H  0.72601304  0.88012863  0.89282085     0.17500
N3978       N  0.70909781  0.82134898  0.90623534    -0.89200
H3979       H  0.65074881  0.94406361  0.95489498     0.34900
H3980       H  0.68322248  0.94805629  0.98056741     0.40000
H3981       H  0.68693633  0.81065206  0.89890654     0.39600
H3982       H  0.72213967  0.80468478  0.92025495     0.34500
C3983       C  0.72202995  0.62545573  0.91702654    -0.27200
C3984       C  0.71052898  0.59637435  0.93129065    -0.15300
C3985       C  0.68908161  0.59794917  0.95857250     0.35300
C3986       C  0.67830911  0.62785156  0.96934168    -0.26700
C3987       C  0.68945413  0.65686471  0.95471159    -0.15900
C3988       C  0.71218130  0.65547961  0.92879088     0.36400
N3989       N  0.72272040  0.68422748  0.91228477    -0.90200
H3990       H  0.73702420  0.62496793  0.89499623     0.17500
H3991       H  0.65944644  0.62819402  0.98830183     0.17500
N3992       N  0.67564105  0.56982963  0.97413165    -0.89200
H3993       H  0.71598682  0.68262015  0.88748220     0.34900
H3994       H  0.74843756  0.68545813  0.91340230     0.40000
H3995       H  0.69512385  0.55620936  0.98340696     0.39600
H3996       H  0.66293395  0.55646700  0.95650061     0.34500
C3997       C  0.71423710  0.85165549  0.53834975    -0.27200
C3998       C  0.69165298  0.83407954  0.55755304    -0.15300
C3999       C  0.67787869  0.84895491  0.58565790     0.35300
C4000       C  0.68589853  0.88060468  0.59289356    -0.26700
C4001       C  0.70767963  0.89851761  0.57320281    -0.15900
C4002       C  0.72184432  0.88399265  0.54523846     0.36400
N4003       N  0.74235707  0.90157562  0.52252522    -0.90200
H4004       H  0.72360811  0.84096311  0.51630392     0.17500
H4005       H  0.67460822  0.89172452  0.61413682     0.17500
N4006       N  0.65509823  0.83269724  0.60717953    -0.89200
H4007       H  0.76481046  0.88970728  0.52077833     0.34900
H4008       H  0.74721741  0.92475851  0.53068117     0.40000
H4009       H  0.66532370  0.81079708  0.61432233     0.39600
H4010       H  0.63311513  0.82865690  0.59459932     0.34500
C4011       C  0.66455223  0.62449368  0.55801564    -0.27200
C4012       C  0.68684012  0.64720380  0.54432160    -0.15300
C4013       C  0.71950579  0.63686386  0.53772938     0.35300
C4014       C  0.72887412  0.60510003  0.54622452    -0.26700
C4015       C  0.70613143  0.58299514  0.56007565    -0.15900
C4016       C  0.67360051  0.59298024  0.56517320     0.36400
N4017       N  0.64975684  0.57141968  0.57939090    -0.90200
H4018       H  0.63924551  0.63109126  0.56326852     0.17500
H4019       H  0.75416171  0.59774119  0.54264966     0.17500
N4020       N  0.74332523  0.65745235  0.52204831    -0.89200
H4021       H  0.62999510  0.56943264  0.56301897     0.34900
H4022       H  0.64092167  0.58163254  0.60116368     0.40000
H4023       H  0.74394301  0.67920079  0.53442583     0.39600
H4024       H  0.73559732  0.66251174  0.49817844     0.34500
C4025       C  0.57774510  0.77865410  0.87750435    -0.27200
C4026       C  0.56762614  0.79080653  0.90837769    -0.15300
C4027       C  0.54189214  0.81318696  0.90919185     0.35300
C4028       C  0.52787480  0.82371944  0.87923996    -0.26700
C4029       C  0.53879446  0.81228581  0.84827671    -0.15900
C4030       C  0.56343631  0.78865866  0.84779580     0.36400
N4031       N  0.57606113  0.77596291  0.81757354    -0.90200
H4032       H  0.59819766  0.76213858  0.87622408     0.17500
H4033       H  0.50896214  0.84195490  0.87999493     0.17500
N4034       N  0.53135990  0.82653245  0.94005550    -0.89200
H4035       H  0.58531838  0.79486511  0.80314954     0.34900
H4036       H  0.55663146  0.76494314  0.80502825     0.40000
H4037       H  0.51202102  0.84262307  0.93635795     0.39600
H4038       H  0.55105794  0.83985622  0.94949151     0.34500
C4039       C  0.58292793  0.77153967  0.62940731    -0.27200
C4040       C  0.57667853  0.78624367  0.59855368    -0.15300
C4041       C  0.55729204  0.81378449  0.59737413     0.35300
C4042       C  0.54390471  0.82567809  0.62649322    -0.26700
C4043       C  0.54872973  0.81039284  0.65738783    -0.15900
C4044       C  0.56862475  0.78306083  0.65872214     0.36400
N4045       N  0.57635909  0.76850596  0.68979471    -0.90200
H4046       H  0.59963446  0.75142087  0.63086191     0.17500
H4047       H  0.52962209  0.84750415  0.62478448     0.17500
N4048       N  0.55342472  0.83133472  0.56711403    -0.89200
H4049       H  0.60198290  0.76917229  0.69269436     0.34900
H4050       H  0.56898727  0.74451620  0.68907769     0.40000
H4051       H  0.52823179  0.83410817  0.56260776     0.39600
H4052       H  0.56357441  0.85418436  0.57030897     0.34500
C4053       C  0.59172649  0.69473616  0.87688572    -0.27200
C4054       C  0.57248942  0.70469817  0.90404238    -0.15300
C4055       C  0.53821653  0.70856571  0.89963895     0.35300
C4056       C  0.52428931  0.70203303  0.86867575    -0.26700
C4057       C  0.54353445  0.69045543  0.84243265    -0.15900
C4058       C  0.57777663  0.68838994  0.84622358     0.36400
N4059       N  0.59820113  0.67872969  0.81899757    -0.90200
H4060       H  0.61815639  0.69184183  0.87937136     0.17500
H4061       H  0.49839378  0.70586539  0.86527633     0.17500
N4062       N  0.51708418  0.71881358  0.92585743    -0.89200
H4063       H  0.62302844  0.67790982  0.82587330     0.34900
H4064       H  0.59637746  0.69635876  0.80065899     0.40000
H4065       H  0.52546187  0.74100594  0.93423774     0.39600
H4066       H  0.02150347  0.74185218  0.93389706     0.34500
C4067       C  0.53583394  0.70595401  0.63783927    -0.27200
C4068       C  0.55353280  0.68594769  0.65928085    -0.15300
C4069       C  0.58342444  0.67282942  0.64829879     0.35300
C4070       C  0.59411696  0.67819905  0.61612962    -0.26700
C4071       C  0.57598352  0.69703098  0.59390270    -0.15900
C4072       C  0.54608389  0.71055087  0.60465236     0.36400
N4073       N  0.52679189  0.72948336  0.58244611    -0.90200
H4074       H  0.51344207  0.71698420  0.64654753     0.17500
H4075       H  0.61743798  0.66782152  0.60865765     0.17500
N4076       N  0.60284157  0.65319146  0.66973112    -0.89200
H4077       H  0.50543884  0.73691518  0.59458646     0.34900
H4078       H  0.51899909  0.71453668  0.56339546     0.40000
H4079       H  0.62620964  0.66372311  0.67183264     0.39600
H4080       H  0.60575683  0.63088185  0.65855175     0.34500
loop_ 
_geom_bond_atom_site_label_1 
_geom_bond_atom_site_label_2 
_geom_bond_distance 
_geom_bond_site_symmetry_2 
_ccdc_geom_bond_type 
O1            C9   1.281       .  A
O1          Co21   1.999   1_554  S
O2           C10   1.283       .  A
O2          Co22   2.003       .  S
O3           C11   1.268       .  A
O3          Co23   1.993       .  S
O4           C12   1.271       .  A
O4          Co24   1.986       .  S
O5           C11   1.276       .  A
O5         Co532   1.980       .  S
O6           C12   1.278       .  A
O6         Co531   1.997       .  S
O7           C10   1.270       .  A
O7          Co24   2.000       .  S
O8            C9   1.271       .  A
O8          Co23   2.003       .  S
C9          C501   1.489       .  S
C10         C456   1.486       .  S
C11         C470   1.480       .  S
C12         C484   1.481       .  S
O13          C26   1.266       .  A
O13        Co531   1.985       .  S
O14          C27   1.274       .  A
O14        Co532   2.010       .  S
O15          C28   1.285       .  A
O15         Co23   2.027       .  S
O16          C29   1.289       .  A
O16         Co24   2.023       .  S
O17          C29   1.264       .  A
O17         Co22   1.978       .  S
O18          C28   1.270       .  A
O18         Co21   1.993   1_554  S
O19          C26   1.289       .  A
O19         Co24   2.024       .  S
O20          C27   1.284       .  A
O20         Co23   2.011       .  S
Co21        O516   1.991       .  S
Co21        O523   1.985       .  S
Co21         O25   2.091   1_556  S
Co22        O515   1.989       .  S
Co22        O524   1.997       .  S
Co22        O535   2.094       .  S
Co23         O25   2.105       .  S
Co24        O535   2.097       .  S
O25        Co532   2.098       .  S
O25        Co534   2.098   1_554  S
C26         C417   1.485       .  S
C27         C428   1.484       .  S
C28         C442   1.512       .  S
C29         C400   1.491       .  S
O30          C38   1.268       .  A
O30         Co50   1.965       .  S
O31          C39   1.298       .  A
O31         Co51   2.087       .  S
O32          C40   1.289       .  A
O32        Co562   2.023       .  S
O33          C41   1.280       .  A
O33        Co563   2.019   1_554  S
O34          C40   1.267       .  A
O34         Co51   1.951       .  S
O35          C41   1.265       .  A
O35         Co50   1.982       .  S
O36          C39   1.284       .  A
O36         Co53   1.912       .  S
O37          C38   1.289       .  A
O37         Co52   2.011       .  S
C38         C386   1.477       .  S
C39         C344   1.465       .  S
C40         C372   1.467       .  S
C41         C361   1.477       .  S
O42          C55   1.273       .  A
O42         Co50   1.938       .  S
O43          C56   1.281       .  A
O43         Co51   1.985       .  S
O44          C57   1.266       .  A
O44         Co52   1.956       .  S
O45          C58   1.297       .  A
O45         Co53   2.078       .  S
O46          C58   1.276       .  A
O46         Co51   2.000       .  S
O47          C57   1.278       .  A
O47         Co50   1.997       .  S
O48          C55   1.313       .  A
O48        Co563   2.086   1_554  S
O49          C56   1.274       .  A
O49        Co562   2.000       .  S
Co50         O54   1.998       .  S
Co51        O564   1.988       .  S
Co52        O542   2.030   1_554  S
Co52        O559   1.995   1_554  S
Co52         O54   2.008       .  S
Co53        O543   2.011       .  S
Co53        O558   2.081       .  S
Co53        O564   1.878       .  S
O54        Co563   1.880   1_554  S
O54        Co561   1.986   1_554  S
C55         C291   1.467       .  S
C56         C330   1.478       .  S
C57         C302   1.480       .  S
C58         C316   1.481       .  S
O59          C67   1.284       .  A
O59         Co79   1.895       .  S
O60          C68   1.276       .  A
O60         Co80   1.951       .  S
O61          C69   1.276       .  A
O61       Co1101   2.021       .  S
O62          C70   1.298       .  A
O62         Co82   2.046       .  S
O63          C69   1.272       .  A
O63         Co80   1.970       .  S
O64          C70   1.290       .  A
O64         Co79   2.035       .  S
O65          C68   1.305       .  A
O65       Co1102   2.087       .  S
O66          C67   1.302       .  A
O66         Co81   2.095   1_545  S
C67         C274   1.473       .  S
C68         C235   1.479       .  S
C69         C249   1.476       .  S
C70         C260   1.506       .  S
O71          C84   1.284       .  A
O71         Co79   2.028       .  S
O72          C85   1.271       .  A
O72         Co80   1.975       .  S
O73          C86   1.272       .  A
O73         Co81   1.989   1_545  S
O74          C87   1.278       .  A
O74       Co1102   2.026       .  S
O75          C87   1.260       .  A
O75         Co80   1.932       .  S
O76          C86   1.286       .  A
O76         Co79   2.065       .  S
O77          C84   1.272       .  A
O77         Co82   2.015       .  S
O78          C85   1.284       .  A
O78       Co1101   2.027       .  S
Co79         O83   1.866   1_545  S
Co80       O1103   1.917       .  S
Co81       O1081   1.971       .  S
Co81       O1098   2.025       .  S
Co81         O83   2.056       .  S
Co82       O1085   2.096   1_545  S
Co82       O1094   2.020   1_545  S
Co82         O83   2.016   1_545  S
O83       Co1100   1.938       .  S
C84         C305   1.470       .  S
C85         C431   1.481       .  S
C86         C445   1.484       .  S
C87         C288   1.467       .  S
O88          C96   1.269       .  A
O88        Co108   1.999   1_545  S
O89          C97   1.261       .  A
O89       Co1129   1.977       .  S
O90          C98   1.278       .  A
O90        Co110   2.000       .  S
O91          C99   1.290       .  A
O91        Co111   2.013       .  S
O92          C98   1.271       .  A
O92        Co109   1.962       .  S
O93          C99   1.263       .  A
O93       Co1128   1.970       .  S
O94          C97   1.281       .  A
O94        Co111   2.005       .  S
O95          C96   1.278       .  A
O95        Co110   1.994       .  S
C96         C218   1.481       .  S
C97         C176   1.476       .  S
C98         C204   1.467       .  S
C99         C190   1.480       .  S
O100        C113   1.290       .  A
O100      Co1128   2.046       .  S
O101        C114   1.285       .  A
O101       Co109   2.017       .  S
O102        C115   1.271       .  A
O102       Co110   2.001       .  S
O103        C116   1.277       .  A
O103       Co111   2.017       .  S
O104        C116   1.283       .  A
O104      Co1129   1.998       .  S
O105        C115   1.284       .  A
O105       Co108   2.010   1_545  S
O106        C113   1.259       .  A
O106       Co111   1.966       .  S
O107        C114   1.265       .  A
O107       Co110   1.992       .  S
Co108      O1113   1.984       .  S
Co108      O1120   2.014       .  S
Co108       O112   2.089       .  S
Co109      O1109   1.981   1_545  S
Co109      O1124   2.001   1_545  S
Co109       O112   2.093   1_545  S
Co110       O112   2.095   1_545  S
Co111      O1132   2.087       .  S
O112      Co1131   2.094       .  S
C113        C403   1.503       .  S
C114        C333   1.500       .  S
C115        C414   1.495       .  S
C116        C319   1.482       .  S
O117        C125   1.270       .  A
O117       Co137   1.974       .  S
O118        C126   1.279       .  A
O118       Co138   2.002       .  S
O119        C127   1.266       .  A
O119      Co2179   1.985       .  S
O120        C128   1.276       .  A
O120      Co2180   2.007   1_455  S
O121        C127   1.281       .  A
O121       Co138   1.997       .  S
O122        C128   1.274       .  A
O122       Co137   1.989       .  S
O123        C126   1.264       .  A
O123       Co140   1.971       .  S
O124        C125   1.287       .  A
O124       Co139   2.074       .  S
C125        C498   1.487       .  S
C126        C375   1.486       .  S
C127        C389   1.481       .  S
C128        C487   1.467       .  S
O129        C142   1.261       .  A
O129       Co137   1.981       .  S
O130        C143   1.268       .  A
O130       Co138   1.993       .  S
O131        C144   1.286       .  A
O131       Co139   1.916       .  S
O132        C145   1.278       .  A
O132       Co140   1.998       .  S
O133        C145   1.271       .  A
O133       Co138   1.989       .  S
O134        C144   1.295       .  A
O134       Co137   2.078       .  S
O135        C142   1.272       .  A
O135      Co2180   2.003   1_455  S
O136        C143   1.283       .  A
O136      Co2179   2.015       .  S
Co137      O2181   2.113   1_455  S
Co138       O141   2.093       .  S
Co139      O2159   2.082   1_455  S
Co139      O2176   2.036   1_455  S
Co139      O2181   1.908   1_455  S
Co140      O2160   2.019       .  S
Co140      O2175   2.000       .  S
Co140       O141   2.094       .  S
O141      Co2177   2.095       .  S
O141      Co2179   2.096       .  S
C142        C221   1.482       .  S
C143        C263   1.493       .  S
C144        C277   1.475       .  S
C145        C207   1.467       .  S
O146        C154   1.269       .  A
O146       Co166   1.980       .  S
O147        C155   1.276       .  A
O147      Co2207   2.006       .  S
O148        C156   1.280       .  A
O148       Co168   2.010       .  S
O149        C157   1.270       .  A
O149       Co169   1.992       .  S
O150        C156   1.263       .  A
O150       Co167   1.982   1_455  S
O151        C157   1.264       .  A
O151      Co2206   2.002       .  S
O152        C155   1.280       .  A
O152       Co169   1.993       .  S
O153        C154   1.284       .  A
O153       Co168   1.992       .  S
C154        C473   1.468       .  S
C155        C347   1.465       .  S
C156        C459   1.494       .  S
C157        C358   1.475       .  S
O158        C171   1.276       .  A
O158      Co2206   1.983       .  S
O159        C172   1.285       .  A
O159       Co167   1.999   1_455  S
O160        C173   1.264       .  A
O160       Co168   1.989       .  S
O161        C174   1.256       .  A
O161       Co169   1.963       .  S
O162        C174   1.279       .  A
O162      Co2207   2.011       .  S
O163        C173   1.281       .  A
O163       Co166   2.007       .  S
O164        C171   1.280       .  A
O164       Co169   2.032       .  S
O165        C172   1.270       .  A
O165       Co168   1.993       .  S
Co166      O2191   1.990   1_455  S
Co166      O2198   1.989   1_455  S
Co166       O170   2.107       .  S
Co167      O2187   2.015       .  S
Co167      O2202   2.010       .  S
Co167       O170   2.094   1_655  S
Co168       O170   2.098       .  S
Co169      O2210   2.094       .  S
O170      Co2209   2.090   1_455  S
C171        C232   1.480       .  S
C172        C193   1.483       .  S
C173        C246   1.493       .  S
C174        C179   1.485       .  S
C175        C176   1.390       .  A
C175        C180   1.399       .  A
C175        H182   1.084       .  S
C176        C177   1.424       .  A
C177        C178   1.403       .  A
C177        N184   1.433       .  S
C178        C179   1.393       .  A
C178        H183   1.084       .  S
C179        C180   1.428       .  A
C180        N181   1.435       .  S
N181        H185   1.044       .  S
N181        H186   1.045       .  S
N184        H187   1.045       .  S
N184        H188   1.046       .  S
C189        C190   1.391       .  A
C189        C194   1.399       .  A
C189        H196   1.084       .  S
C190        C191   1.435       .  A
C191        C192   1.396       .  A
C191        N198   1.434       .  S
C192        C193   1.392       .  A
C192        H197   1.084       .  S
C193        C194   1.426       .  A
C194        N195   1.434       .  S
N195        H199   1.046       .  S
N195        H200   1.042       .  S
N198        H201   1.037       .  S
N198       H1222   1.044       .  S
H202       N1218   1.040       .  S
C203        C204   1.396       .  A
C203        C208   1.372       .  A
C203        H210   1.084       .  S
C204        C205   1.408       .  A
C205        C206   1.419       .  A
C205        N212   1.430       .  S
C206        C207   1.405       .  A
C206        H211   1.081       .  S
C207        C208   1.409       .  A
C208        N209   1.426       .  S
N209        H213   1.040       .  S
N209        H214   1.045       .  S
N212        H215   1.044       .  S
N212        H216   1.044       .  S
C217        C218   1.397       .  A
C217        C222   1.404       .  A
C217        H224   1.084       .  S
C218        C219   1.419       .  A
C219        C220   1.404       .  A
C219        N226   1.433       .  S
C220        C221   1.397       .  A
C220        H225   1.084       .  S
C221        C222   1.418       .  A
C222        N223   1.431       .  S
N223        H227   1.044       .  S
N223        H228   1.046       .  S
N226        H229   1.045   1_545  S
N226        H230   1.045       .  S
C231        C232   1.394       .  A
C231        C236   1.400       .  A
C231        H238   1.065       .  S
C232        C233   1.414       .  A
C233        C234   1.406       .  A
C233        N240   1.431       .  S
C234        C235   1.407       .  A
C234        H239   1.084       .  S
C235        C236   1.404       .  A
C236        N237   1.436       .  S
N237        H241   1.037       .  S
N237        H242   1.045       .  S
N240        H243   1.043       .  S
N240        H244   1.045       .  S
C245        C246   1.415       .  A
C245        C250   1.405       .  A
C245        H252   1.084       .  S
C246        C247   1.399       .  A
C247        C248   1.407       .  A
C247        N254   1.424       .  S
C248        C249   1.405       .  A
C248        H253   1.083       .  S
C249        C250   1.405       .  A
C250        N251   1.433       .  S
N251        H255   1.046       .  S
N251        H256   1.044       .  S
N254        H257   1.044       .  S
N254        H258   1.042       .  S
C259        C260   1.419       .  A
C259        C264   1.411       .  A
C259        H266   1.078       .  S
C260        C261   1.414       .  A
C261        C262   1.399       .  A
C261        N268   1.432       .  S
C262        C263   1.413       .  A
C262        H267   1.084       .  S
C263        C264   1.401       .  A
C264        N265   1.432       .  S
N265        H269   1.046       .  S
N265        H270   1.045       .  S
N268        H271   1.045       .  S
N268        H272   1.046       .  S
C273        C274   1.395       .  A
C273        C278   1.404       .  A
C273        H280   1.084       .  S
C274        C275   1.411       .  A
C275        C276   1.404       .  A
C275        N282   1.431       .  S
C276        C277   1.395       .  A
C276        H281   1.084       .  S
C277        C278   1.415       .  A
C278        N279   1.428       .  S
N279        H283   1.046       .  S
N279        H284   1.046       .  S
N282        H285   1.045   1_545  S
N282        H286   1.044       .  S
C287        C288   1.408       .  A
C287        C292   1.391       .  A
C287        H294   1.084       .  S
C288        C289   1.403       .  A
C289        C290   1.394       .  A
C289        N296   1.432       .  S
C290        C291   1.408       .  A
C290        H295   1.082       .  S
C291        C292   1.405       .  A
C292        N293   1.433       .  S
N293        H297   1.045       .  S
N293        H298   1.046       .  S
N296        H299   1.046       .  S
N296        H300   1.046       .  S
C301        C302   1.414       .  A
C301        C306   1.387       .  A
C301        H308   1.084       .  S
C302        C303   1.406       .  A
C303        C304   1.410       .  A
C303        N310   1.436       .  S
C304        C305   1.411       .  A
C304        H309   1.083       .  S
C305        C306   1.399       .  A
C306        N307   1.434       .  S
N307        H311   1.046       .  S
N307        H312   1.046       .  S
N310        H313   1.045       .  S
N310        H314   1.046       .  S
C315        C316   1.406       .  A
C315        C320   1.406       .  A
C315        H322   1.083       .  S
C316        C317   1.404       .  A
C317        C318   1.404       .  A
C317        N324   1.428       .  S
C318        C319   1.399       .  A
C318        H323   1.069       .  S
C319        C320   1.409       .  A
C320        N321   1.432       .  S
N321        H325   1.046       .  S
N321        H326   1.045       .  S
N324        H327   1.041       .  S
N324        H328   1.042       .  S
C329        C330   1.391       .  A
C329        C334   1.401       .  A
C329        H336   1.085       .  S
C330        C331   1.415       .  A
C331        C332   1.409       .  A
C331        N338   1.429       .  S
C332        C333   1.400       .  A
C332        H337   1.083       .  S
C333        C334   1.432       .  A
C334        N335   1.435       .  S
N335        H339   1.046       .  S
N335        H340   1.045       .  S
N338        H341   1.045       .  S
N338        H852   1.044       .  S
H342        N848   1.042       .  S
C343        C344   1.400       .  A
C343        C348   1.397       .  A
C343        H350   1.084       .  S
C344        C345   1.412       .  A
C345        C346   1.402       .  A
C345        N352   1.432       .  S
C346        C347   1.401       .  A
C346        H351   1.078       .  S
C347        C348   1.407       .  A
C348        N349   1.431       .  S
N349        H353   1.046       .  S
N349        H354   1.046       .  S
N352        H355   1.041       .  S
N352        H356   1.042       .  S
C357        C358   1.402       .  A
C357        C362   1.405       .  A
C357        H364   1.075       .  S
C358        C359   1.407       .  A
C359        C360   1.399       .  A
C359        N366   1.432       .  S
C360        C361   1.408       .  A
C360        H365   1.085       .  S
C361        C362   1.410       .  A
C362        N363   1.431       .  S
N363        H367   1.045       .  S
N363        H368   1.041       .  S
N366        H369   1.046       .  S
N366        H370   1.045       .  S
C371        C372   1.414       .  A
C371        C376   1.405       .  A
C371        H378   1.080       .  S
C372        C373   1.393       .  A
C373        C374   1.394       .  A
C373        N380   1.433       .  S
C374        C375   1.419       .  A
C374        H379   1.082       .  S
C375        C376   1.400       .  A
C376        N377   1.431       .  S
N377        H381   1.043       .  S
N377        H382   1.046       .  S
N380        H383   1.045       .  S
N380        H384   1.046       .  S
C385        C386   1.393       .  A
C385        C390   1.399       .  A
C385        H392   1.084       .  S
C386        C387   1.422       .  A
C387        C388   1.401       .  A
C387        N394   1.433       .  S
C388        C389   1.394       .  A
C388        H393   1.084       .  S
C389        C390   1.425       .  A
C390        N391   1.434       .  S
N391        H395   1.045       .  S
N391        H396   1.046       .  S
N394        H397   1.043       .  S
N394        H398   1.046       .  S
C399        C400   1.419       .  A
C399        C404   1.409       .  A
C399        H406   1.083       .  S
C400        C401   1.404       .  A
C401        C402   1.401       .  A
C401        N408   1.434       .  S
C402        C403   1.425       .  A
C402        H407   1.083       .  S
C403        C404   1.407       .  A
C404        N405   1.431       .  S
N405        H409   1.045       .  S
N405        H410   1.045       .  S
N408        H411   1.046       .  S
N408        H412   1.043       .  S
C413        C414   1.418       .  A
C413        C418   1.405       .  A
C413        H420   1.080       .  S
C414        C415   1.406       .  A
C415        C416   1.402       .  A
C415        N422   1.432       .  S
C416        C417   1.417       .  A
C416        H421   1.080       .  S
C417        C418   1.396       .  A
C418        N419   1.432       .  S
N419        H423   1.046       .  S
N419        H424   1.044       .  S
N422        H425   1.045       .  S
N422        H426   1.045       .  S
C427        C428   1.407       .  A
C427        C432   1.414       .  A
C427        H434   1.071       .  S
C428        C429   1.411       .  A
C429        C430   1.390       .  A
C429        N436   1.430       .  S
C430        C431   1.399       .  A
C430        H435   1.079       .  S
C431        C432   1.408       .  A
C432        N433   1.430       .  S
N433        H437   1.040       .  S
N433        H438   1.042       .  S
N436        H439   1.046       .  S
N436        H440   1.040       .  S
C441        C442   1.416       .  A
C441        C446   1.398       .  A
C441        H448   1.084       .  S
C442        C443   1.426       .  A
C443        C444   1.422       .  A
C443        N450   1.436       .  S
C444        C445   1.406       .  A
C444        H449   1.080       .  S
C445        C446   1.399       .  A
C446        N447   1.434       .  S
N447        H451   1.046       .  S
N447        H452   1.044       .  S
N450        H453   1.040       .  S
N450        H454   1.045   1_554  S
C455        C456   1.414       .  A
C455        C460   1.403       .  A
C455        H462   1.082       .  S
C456        C457   1.402       .  A
C457        C458   1.407       .  A
C457        N464   1.438       .  S
C458        C459   1.417       .  A
C458        H463   1.084       .  S
C459        C460   1.408       .  A
C460        N461   1.432       .  S
N461        H465   1.045       .  S
N461        H466   1.045       .  S
N464        H467   1.045       .  S
N464        H468   1.046       .  S
C469        C470   1.415       .  A
C469        C474   1.404       .  A
C469        H476   1.081       .  S
C470        C471   1.399       .  A
C471        C472   1.396       .  A
C471        N478   1.433       .  S
C472        C473   1.410       .  A
C472        H477   1.082       .  S
C473        C474   1.401       .  A
C474        N475   1.438       .  S
N475        H479   1.045       .  S
N475        H480   1.043       .  S
N478        H481   1.043       .  S
N478        H482   1.046       .  S
C483        C484   1.410       .  A
C483        C488   1.391       .  A
C483        H490   1.084       .  S
C484        C485   1.412       .  A
C485        C486   1.407       .  A
C485        N492   1.431       .  S
C486        C487   1.405       .  A
C486        H491   1.075       .  S
C487        C488   1.398       .  A
C488        N489   1.434       .  S
N489        H493   1.046       .  S
N489        H494   1.046       .  S
N492        H495   1.042       .  S
N492       H2536   1.044       .  S
H496       N2532   1.044       .  S
C497        C498   1.408       .  A
C497        C502   1.404       .  A
C497        H504   1.064       .  S
C498        C499   1.404       .  A
C499        C500   1.404       .  A
C499        N506   1.437       .  S
C500        C501   1.413       .  A
C500        H505   1.081       .  S
C501        C502   1.400       .  A
C502        N503   1.432       .  S
N503        H507   1.046       .  S
N503        H508   1.046       .  S
N506        H509   1.043       .  S
N506        H510   1.045       .  S
O511        C519   1.279       .  A
O511       Co531   2.002       .  S
O512        C520   1.286       .  A
O512       Co532   2.016   1_556  S
O513        C521   1.271       .  A
O513       Co533   2.008       .  S
O514        C522   1.268       .  A
O514       Co534   1.985       .  S
O515        C521   1.279       .  A
O516        C522   1.278       .  A
O517        C520   1.272       .  A
O517       Co534   2.003       .  S
O518        C519   1.267       .  A
O518       Co533   1.982       .  S
C519       C1011   1.479       .  S
C520        C966   1.496       .  S
C521        C980   1.482       .  S
C522        C994   1.482       .  S
O523        C536   1.268       .  A
O524        C537   1.270       .  A
O525        C538   1.286       .  A
O525       Co533   2.028       .  S
O526        C539   1.288       .  A
O526       Co534   2.021       .  S
O527        C539   1.260       .  A
O527       Co532   1.961   1_556  S
O528        C538   1.272       .  A
O528       Co531   1.987       .  S
O529        C536   1.289       .  A
O529       Co534   2.022       .  S
O530        C537   1.283       .  A
O530       Co533   2.013       .  S
Co531       O535   2.096       .  S
Co533       O535   2.107       .  S
C536        C927   1.488       .  S
C537        C938   1.485       .  S
C538        C952   1.503       .  S
C539        C910   1.484       .  S
O540        C548   1.269       .  A
O540       Co560   1.967       .  S
O541        C549   1.297       .  A
O541       Co561   2.083       .  S
O542        C550   1.290       .  A
O543        C551   1.279       .  A
O544        C550   1.269       .  A
O544       Co561   1.961       .  S
O545        C551   1.265       .  A
O545       Co560   1.979       .  S
O546        C549   1.286       .  A
O546       Co563   1.912       .  S
O547        C548   1.290       .  A
O547       Co562   2.021       .  S
C548        C896   1.479       .  S
C549        C854   1.465       .  S
C550        C882   1.476       .  S
C551        C871   1.471       .  S
O552        C565   1.273       .  A
O552       Co560   1.936       .  S
O553        C566   1.281       .  A
O553       Co561   1.983       .  S
O554        C567   1.266       .  A
O554       Co562   1.951       .  S
O555        C568   1.297       .  A
O555       Co563   2.077       .  S
O556        C568   1.276       .  A
O556       Co561   2.003       .  S
O557        C567   1.277       .  A
O557       Co560   1.999       .  S
O558        C565   1.312       .  A
O559        C566   1.272       .  A
Co560       O564   1.999       .  S
Co562       O564   2.000       .  S
C565        C801   1.466       .  S
C566        C840   1.474       .  S
C567        C812   1.481       .  S
C568        C826   1.483       .  S
O569        C577   1.286       .  A
O569       Co589   1.887       .  S
O570        C578   1.278       .  A
O570       Co590   1.968       .  S
O571        C579   1.276       .  A
O571      Co1611   2.018       .  S
O572        C580   1.301       .  A
O572       Co592   2.049   1_545  S
O573        C579   1.270       .  A
O573       Co590   1.960       .  S
O574        C580   1.288       .  A
O574       Co589   2.026       .  S
O575        C578   1.309       .  A
O575      Co1612   2.090       .  S
O576        C577   1.300       .  A
O576       Co591   2.083   1_545  S
C577        C784   1.484       .  S
C578        C745   1.479       .  S
C579        C759   1.467       .  S
C580        C770   1.496       .  S
O581        C594   1.288       .  A
O581       Co589   2.049       .  S
O582        C595   1.272       .  A
O582       Co590   1.990       .  S
O583        C596   1.274       .  A
O583       Co591   2.003   1_545  S
O584        C597   1.277       .  A
O584      Co1612   2.024       .  S
O585        C597   1.259       .  A
O585       Co590   1.926       .  S
O586        C596   1.282       .  A
O586       Co589   2.050       .  S
O587        C594   1.271       .  A
O587       Co592   2.003   1_545  S
O588        C595   1.284       .  A
O588      Co1611   2.021       .  S
Co589       O593   1.866   1_545  S
Co590      O1613   1.930       .  S
Co591      O1591   2.017       .  S
Co591      O1608   2.022       .  S
Co591       O593   2.053       .  S
Co592      O1595   2.092       .  S
Co592      O1604   2.014       .  S
Co592       O593   2.006       .  S
O593      Co1610   1.926       .  S
C594        C815   1.470       .  S
C595        C941   1.481       .  S
C596        C955   1.484       .  S
C597        C798   1.460       .  S
O598        C606   1.275       .  A
O598       Co618   2.013       .  S
O599        C607   1.266       .  A
O599      Co1639   1.991       .  S
O600        C608   1.281       .  A
O600       Co620   2.001       .  S
O601        C609   1.291       .  A
O601       Co621   2.020       .  S
O602        C608   1.266       .  A
O602       Co619   1.964       .  S
O603        C609   1.261       .  A
O603      Co1638   1.964       .  S
O604        C607   1.283       .  A
O604       Co621   2.006       .  S
O605        C606   1.276       .  A
O605       Co620   1.996       .  S
C606        C728   1.479       .  S
C607        C686   1.485       .  S
C608        C714   1.477       .  S
C609        C700   1.483       .  S
O610        C623   1.288       .  A
O610      Co1638   2.026       .  S
O611        C624   1.288       .  A
O611       Co619   2.028       .  S
O612        C625   1.268       .  A
O612       Co620   1.993       .  S
O613        C626   1.276       .  A
O613       Co621   2.016       .  S
O614        C626   1.283       .  A
O614      Co1639   2.004       .  S
O615        C625   1.282       .  A
O615       Co618   2.009       .  S
O616        C623   1.260       .  A
O616       Co621   1.962       .  S
O617        C624   1.262       .  A
O617       Co620   1.971       .  S
Co618      O1623   1.983   1_545  S
Co618      O1630   2.022   1_545  S
Co618       O622   2.098       .  S
Co619      O1619   1.997   1_545  S
Co619      O1634   2.004   1_545  S
Co619       O622   2.105       .  S
Co620       O622   2.093       .  S
Co621      O1642   2.092       .  S
O622      Co1641   2.093   1_545  S
C623        C913   1.490       .  S
C624        C843   1.500       .  S
C625        C924   1.490       .  S
C626        C829   1.486       .  S
O627        C635   1.284       .  A
O627       Co647   2.005       .  S
O628        C636   1.278       .  A
O628       Co648   2.005       .  S
O629        C637   1.266       .  A
O629      Co2689   1.982       .  S
O630        C638   1.282       .  A
O630      Co2690   2.020   1_455  S
O631        C637   1.285       .  A
O631       Co648   2.008       .  S
O632        C638   1.280       .  A
O632       Co647   1.979       .  S
O633        C636   1.264       .  A
O633       Co650   1.991       .  S
O634        C635   1.280       .  A
O634       Co649   2.011   1_455  S
C635       C1008   1.471       .  S
C636        C885   1.492       .  S
C637        C899   1.485       .  S
C638        C997   1.469       .  S
O639        C652   1.262       .  A
O639       Co647   1.978       .  S
O640        C653   1.263       .  A
O640       Co648   1.972       .  S
O641        C654   1.271       .  A
O641       Co649   1.970   1_455  S
O642        C655   1.274       .  A
O642       Co650   1.987       .  S
O643        C655   1.276       .  A
O643       Co648   2.018       .  S
O644        C654   1.272       .  A
O644       Co647   2.012       .  S
O645        C652   1.273       .  A
O645      Co2690   2.013   1_455  S
O646        C653   1.283       .  A
O646      Co2689   2.016       .  S
Co647      O2691   2.092   1_455  S
Co648       O651   2.093       .  S
Co649      O2669   1.973       .  S
Co649      O2686   1.983       .  S
Co649      O2691   1.930       .  S
Co650      O2670   2.024       .  S
Co650      O2685   1.993       .  S
Co650       O651   2.095       .  S
O651      Co2687   2.097       .  S
O651      Co2689   2.102       .  S
C652        C731   1.480       .  S
C653        C773   1.487       .  S
C654        C787   1.483       .  S
C655        C717   1.471       .  S
O656        C664   1.271       .  A
O656       Co676   1.987       .  S
O657        C665   1.275       .  A
O657      Co2717   2.008       .  S
O658        C666   1.283       .  A
O658       Co678   2.011       .  S
O659        C667   1.269       .  A
O659       Co679   1.987       .  S
O660        C666   1.264       .  A
O660       Co677   1.986   1_455  S
O661        C667   1.265       .  A
O661      Co2716   2.002       .  S
O662        C665   1.278       .  A
O662       Co679   1.989       .  S
O663        C664   1.287       .  A
O663       Co678   2.012       .  S
C664        C983   1.491       .  S
C665        C857   1.465       .  S
C666        C969   1.490       .  S
C667        C868   1.472       .  S
O668        C681   1.276       .  A
O668      Co2716   1.983       .  S
O669        C682   1.284       .  A
O669       Co677   1.993   1_455  S
O670        C683   1.265       .  A
O670       Co678   1.992       .  S
O671        C684   1.258       .  A
O671       Co679   1.976       .  S
O672        C684   1.280       .  A
O672      Co2717   2.013       .  S
O673        C683   1.277       .  A
O673       Co676   1.994       .  S
O674        C681   1.278       .  A
O674       Co679   2.029       .  S
O675        C682   1.271       .  A
O675       Co678   1.999       .  S
Co676      O2701   1.983   1_455  S
Co676      O2708   1.984   1_455  S
Co676       O680   2.101   1_455  S
Co677      O2697   2.000       .  S
Co677      O2712   2.012       .  S
Co677       O680   2.099       .  S
Co678       O680   2.102   1_455  S
Co679      O2720   2.098       .  S
O680      Co2719   2.092       .  S
C681        C742   1.478       .  S
C682        C703   1.482       .  S
C683        C756   1.486       .  S
C684        C689   1.491       .  S
C685        C686   1.394       .  A
C685        C690   1.404       .  A
C685        H692   1.084       .  S
C686        C687   1.423       .  A
C687        C688   1.405       .  A
C687        N694   1.431       .  S
C688        C689   1.395       .  A
C688        H693   1.084       .  S
C689        C690   1.426       .  A
C690        N691   1.434       .  S
N691        H695   1.045       .  S
N691        H696   1.045       .  S
N694        H697   1.044       .  S
N694        H698   1.045       .  S
C699        C700   1.394       .  A
C699        C704   1.402       .  A
C699        H706   1.084       .  S
C700        C701   1.436       .  A
C701        C702   1.393       .  A
C701        N708   1.435       .  S
C702        C703   1.390       .  A
C702        H707   1.084       .  S
C703        C704   1.424       .  A
C704        N705   1.433       .  S
N705        H709   1.046       .  S
N705        H710   1.042       .  S
N708        H711   1.036       .  S
N708       H1732   1.044       .  S
H712       N1728   1.044   1_545  S
C713        C714   1.408       .  A
C713        C718   1.386       .  A
C713        H720   1.085       .  S
C714        C715   1.402       .  A
C715        C716   1.408       .  A
C715        N722   1.428       .  S
C716        C717   1.409       .  A
C716        H721   1.075       .  S
C717        C718   1.406       .  A
C718        N719   1.435       .  S
N719        H723   1.043       .  S
N719        H724   1.043       .  S
N722        H725   1.044       .  S
N722        H726   1.044       .  S
C727        C728   1.409       .  A
C727        C732   1.418       .  A
C727        H734   1.082       .  S
C728        C729   1.408       .  A
C729        C730   1.393       .  A
C729        N736   1.432       .  S
C730        C731   1.402       .  A
C730        H735   1.084       .  S
C731        C732   1.405       .  A
C732        N733   1.427       .  S
N733        H737   1.044       .  S
N733        H738   1.042       .  S
N736        H739   1.046       .  S
N736        H740   1.046       .  S
C741        C742   1.394       .  A
C741        C746   1.404       .  A
C741        H748   1.071       .  S
C742        C743   1.415       .  A
C743        C744   1.404       .  A
C743        N750   1.431       .  S
C744        C745   1.406       .  A
C744        H749   1.084       .  S
C745        C746   1.404       .  A
C746        N747   1.433       .  S
N747        H751   1.040       .  S
N747        H752   1.045       .  S
N750        H753   1.042       .  S
N750        H754   1.045       .  S
C755        C756   1.414       .  A
C755        C760   1.402       .  A
C755        H762   1.084       .  S
C756        C757   1.401       .  A
C757        C758   1.404       .  A
C757        N764   1.425       .  S
C758        C759   1.402       .  A
C758        H763   1.084       .  S
C759        C760   1.405       .  A
C760        N761   1.434       .  S
N761        H765   1.046       .  S
N761        H766   1.044       .  S
N764        H767   1.045       .  S
N764        H768   1.043       .  S
C769        C770   1.419       .  A
C769        C774   1.409       .  A
C769        H776   1.078       .  S
C770        C771   1.411       .  A
C771        C772   1.394       .  A
C771        N778   1.433       .  S
C772        C773   1.415       .  A
C772        H777   1.084       .  S
C773        C774   1.399       .  A
C774        N775   1.431       .  S
N775        H779   1.045       .  S
N775        H780   1.044       .  S
N778        H781   1.043       .  S
N778        H782   1.046       .  S
C783        C784   1.397       .  A
C783        C788   1.398       .  A
C783        H790   1.084       .  S
C784        C785   1.422       .  A
C785        C786   1.402       .  A
C785        N792   1.434       .  S
C786        C787   1.400       .  A
C786        H791   1.084       .  S
C787        C788   1.419       .  A
C788        N789   1.433       .  S
N789        H793   1.045       .  S
N789        H794   1.044       .  S
N792        H795   1.045       .  S
N792        H796   1.044       .  S
C797        C798   1.406       .  A
C797        C802   1.392       .  A
C797        H804   1.084       .  S
C798        C799   1.401       .  A
C799        C800   1.393       .  A
C799        N806   1.432       .  S
C800        C801   1.409       .  A
C800        H805   1.083       .  S
C801        C802   1.406       .  A
C802        N803   1.433       .  S
N803        H807   1.044       .  S
N803        H808   1.046       .  S
N806        H809   1.046       .  S
N806        H810   1.046       .  S
C811        C812   1.412       .  A
C811        C816   1.382       .  A
C811        H818   1.083       .  S
C812        C813   1.405       .  A
C813        C814   1.412       .  A
C813        N820   1.432       .  S
C814        C815   1.412       .  A
C814        H819   1.083       .  S
C815        C816   1.400       .  A
C816        N817   1.435       .  S
N817        H821   1.046       .  S
N817        H822   1.046       .  S
N820        H823   1.045       .  S
N820        H824   1.043       .  S
C825        C826   1.405       .  A
C825        C830   1.405       .  A
C825        H832   1.084       .  S
C826        C827   1.405       .  A
C827        C828   1.409       .  A
C827        N834   1.428       .  S
C828        C829   1.404       .  A
C828        H833   1.072       .  S
C829        C830   1.409       .  A
C830        N831   1.432       .  S
N831        H835   1.046       .  S
N831        H836   1.045       .  S
N834        H837   1.042       .  S
N834        H838   1.043       .  S
C839        C840   1.387       .  A
C839        C844   1.395       .  A
C839        H846   1.085       .  S
C840        C841   1.415       .  A
C841        C842   1.412       .  A
C841        N848   1.427   1_556  S
C842        C843   1.400       .  A
C842        H847   1.083       .  S
C843        C844   1.435       .  A
C844        N845   1.435       .  S
N845        H849   1.046       .  S
N845        H850   1.046       .  S
N848        H851   1.045       .  S
C853        C854   1.402       .  A
C853        C858   1.399       .  A
C853        H860   1.084       .  S
C854        C855   1.408       .  A
C855        C856   1.407       .  A
C855        N862   1.436       .  S
C856        C857   1.400       .  A
C856        H861   1.077       .  S
C857        C858   1.405       .  A
C858        N859   1.431       .  S
N859        H863   1.046       .  S
N859        H864   1.046       .  S
N862        H865   1.043       .  S
N862        H866   1.045       .  S
C867        C868   1.402       .  A
C867        C872   1.409       .  A
C867        H874   1.073       .  S
C868        C869   1.406       .  A
C869        C870   1.398       .  A
C869        N876   1.432       .  S
C870        C871   1.407       .  A
C870        H875   1.085       .  S
C871        C872   1.403       .  A
C872        N873   1.435       .  S
N873        H877   1.042       .  S
N873        H878   1.045       .  S
N876        H879   1.046       .  S
N876        H880   1.045       .  S
C881        C882   1.413       .  A
C881        C886   1.407       .  A
C881        H888   1.080       .  S
C882        C883   1.397       .  A
C883        C884   1.400       .  A
C883        N890   1.433       .  S
C884        C885   1.418       .  A
C884        H889   1.082       .  S
C885        C886   1.403       .  A
C886        N887   1.431       .  S
N887        H891   1.043       .  S
N887        H892   1.046       .  S
N890        H893   1.045       .  S
N890        H894   1.046       .  S
C895        C896   1.393       .  A
C895        C900   1.400       .  A
C895        H902   1.084       .  S
C896        C897   1.423       .  A
C897        C898   1.403       .  A
C897        N904   1.432       .  S
C898        C899   1.394       .  A
C898        H903   1.084       .  S
C899        C900   1.428       .  A
C900        N901   1.434       .  S
N901        H905   1.045       .  S
N901        H906   1.046       .  S
N904        H907   1.043       .  S
N904        H908   1.046       .  S
C909        C910   1.421       .  A
C909        C914   1.403       .  A
C909        H916   1.084       .  S
C910        C911   1.402       .  A
C911        C912   1.398       .  A
C911        N918   1.434       .  S
C912        C913   1.423       .  A
C912        H917   1.083       .  S
C913        C914   1.403       .  A
C914        N915   1.433       .  S
N915        H919   1.046       .  S
N915        H920   1.043       .  S
N918        H921   1.046       .  S
N918        H922   1.043       .  S
C923        C924   1.418       .  A
C923        C928   1.407       .  A
C923        H930   1.080       .  S
C924        C925   1.404       .  A
C925        C926   1.398       .  A
C925        N932   1.432       .  S
C926        C927   1.417       .  A
C926        H931   1.082       .  S
C927        C928   1.397       .  A
C928        N929   1.431       .  S
N929        H933   1.046       .  S
N929        H934   1.044       .  S
N932        H935   1.045       .  S
N932        H936   1.045       .  S
C937        C938   1.402       .  A
C937        C942   1.415       .  A
C937        H944   1.075       .  S
C938        C939   1.415       .  A
C939        C940   1.394       .  A
C939        N946   1.432       .  S
C940        C941   1.399       .  A
C940        H945   1.082       .  S
C941        C942   1.413       .  A
C942        N943   1.433       .  S
N943        H947   1.041       .  S
N943        H948   1.043       .  S
N946        H949   1.045       .  S
N946        H950   1.042       .  S
C951        C952   1.410       .  A
C951        C956   1.393       .  A
C951        H958   1.084       .  S
C952        C953   1.424       .  A
C953        C954   1.424       .  A
C953        N960   1.436       .  S
C954        C955   1.411       .  A
C954        H959   1.082       .  S
C955        C956   1.400       .  A
C956        N957   1.432       .  S
N957        H961   1.046       .  S
N957        H962   1.045       .  S
N960        H963   1.042       .  S
N960        H964   1.044       .  S
C965        C966   1.414       .  A
C965        C970   1.398       .  A
C965        H972   1.081       .  S
C966        C967   1.403       .  A
C967        C968   1.413       .  A
C967        N974   1.432       .  S
C968        C969   1.418       .  A
C968        H973   1.084       .  S
C969        C970   1.404       .  A
C970        N971   1.432       .  S
N971        H975   1.046       .  S
N971        H976   1.045       .  S
N974        H977   1.045       .  S
N974        H978   1.046       .  S
C979        C980   1.414       .  A
C979        C984   1.412       .  A
C979        H986   1.082       .  S
C980        C981   1.399       .  A
C981        C982   1.397       .  A
C981        N988   1.433       .  S
C982        C983   1.417       .  A
C982        H987   1.084       .  S
C983        C984   1.403       .  A
C984        N985   1.431       .  S
N985        H989   1.045       .  S
N985        H990   1.043       .  S
N988        H991   1.044       .  S
N988        H992   1.046       .  S
C993        C994   1.414       .  A
C993        C998   1.394       .  A
C993       H1000   1.083       .  S
C994        C995   1.402       .  A
C995        C996   1.403       .  A
C995       N1002   1.432       .  S
C996        C997   1.404       .  A
C996       H1001   1.064   1_455  S
C997        C998   1.399       .  A
C998        N999   1.434       .  S
N999       H1003   1.046       .  S
N999       H1004   1.045       .  S
N1002      H1005   1.045       .  S
N1002      H3046   1.044       .  S
H1006      N3042   1.044       .  S
C1007      C1008   1.403       .  A
C1007      C1012   1.414       .  A
C1007      H1014   1.074       .  S
C1008      C1009   1.402       .  A
C1009      C1010   1.393       .  A
C1009      N1016   1.435       .  S
C1010      C1011   1.407       .  A
C1010      H1015   1.083       .  S
C1011      C1012   1.404       .  A
C1012      N1013   1.433       .  S
N1013      H1017   1.041       .  S
N1013      H1018   1.045       .  S
N1016      H1019   1.046       .  S
N1016      H1020   1.046       .  S
O1021      C1029   1.279       .  A
O1021     Co1041   2.006   1_554  S
O1022      C1030   1.285       .  A
O1022     Co1042   2.008       .  S
O1023      C1031   1.269       .  A
O1023     Co1043   2.001       .  S
O1024      C1032   1.266       .  A
O1024     Co1044   1.975       .  S
O1025      C1031   1.276       .  A
O1025     Co1552   1.981       .  S
O1026      C1032   1.279       .  A
O1026     Co1551   2.000       .  S
O1027      C1030   1.273       .  A
O1027     Co1044   2.010       .  S
O1028      C1029   1.269       .  A
O1028     Co1043   1.979       .  S
C1029      C1521   1.477       .  S
C1030      C1476   1.490       .  S
C1031      C1490   1.473       .  S
C1032      C1504   1.482       .  S
O1033      C1046   1.269       .  A
O1033     Co1551   1.988       .  S
O1034      C1047   1.273       .  A
O1034     Co1552   2.006       .  S
O1035      C1048   1.284       .  A
O1035     Co1043   2.020       .  S
O1036      C1049   1.282       .  A
O1036     Co1044   2.008       .  S
O1037      C1049   1.261       .  A
O1037     Co1042   1.967       .  S
O1038      C1048   1.273       .  A
O1038     Co1041   2.001   1_554  S
O1039      C1046   1.287       .  A
O1039     Co1044   2.012       .  S
O1040      C1047   1.280       .  A
O1040     Co1043   2.001       .  S
Co1041     O1536   2.000       .  S
Co1041     O1543   1.986       .  S
Co1041     O1045   2.096       .  S
Co1042     O1535   1.984       .  S
Co1042     O1544   2.015       .  S
Co1042     O1555   2.097       .  S
Co1043     O1045   2.100   1_554  S
Co1044     O1555   2.094       .  S
O1045     Co1552   2.097   1_556  S
O1045     Co1554   2.094       .  S
C1046      C1437   1.482       .  S
C1047      C1448   1.479       .  S
C1048      C1462   1.506       .  S
C1049      C1420   1.479       .  S
O1050      C1058   1.269       .  A
O1050     Co1070   1.971       .  S
O1051      C1059   1.297       .  A
O1051     Co1071   2.085       .  S
O1052      C1060   1.286       .  A
O1052     Co1582   2.018       .  S
O1053      C1061   1.279       .  A
O1053     Co1583   2.011   1_554  S
O1054      C1060   1.269       .  A
O1054     Co1071   1.960       .  S
O1055      C1061   1.266       .  A
O1055     Co1070   1.976       .  S
O1056      C1059   1.286       .  A
O1056     Co1073   1.917       .  S
O1057      C1058   1.289       .  A
O1057     Co1072   2.016       .  S
C1058      C1406   1.482       .  S
C1059      C1364   1.473       .  S
C1060      C1392   1.472       .  S
C1061      C1381   1.468       .  S
O1062      C1075   1.269       .  A
O1062     Co1070   1.930       .  S
O1063      C1076   1.279       .  A
O1063     Co1071   1.974       .  S
O1064      C1077   1.267       .  A
O1064     Co1072   1.961       .  S
O1065      C1078   1.295       .  A
O1065     Co1073   2.071       .  S
O1066      C1078   1.275       .  A
O1066     Co1071   2.004       .  S
O1067      C1077   1.274       .  A
O1067     Co1070   1.989       .  S
O1068      C1075   1.312       .  A
O1068     Co1583   2.085   1_554  S
O1069      C1076   1.275       .  A
O1069     Co1582   2.002       .  S
Co1070     O1074   1.992       .  S
Co1071     O1584   1.990       .  S
Co1072     O1562   2.025   1_554  S
Co1072     O1579   2.001   1_554  S
Co1072     O1074   2.007       .  S
Co1073     O1563   2.010       .  S
Co1073     O1578   2.082       .  S
Co1073     O1584   1.880       .  S
O1074     Co1583   1.887   1_554  S
O1074     Co1581   1.986   1_554  S
C1075      C1311   1.463       .  S
C1076      C1350   1.470       .  S
C1077      C1322   1.478       .  S
C1078      C1336   1.478       .  S
O1079      C1087   1.285       .  A
O1079     Co1099   1.888       .  S
O1080      C1088   1.280       .  A
O1080     Co1100   1.966       .  S
O1081      C1089   1.267       .  A
O1082      C1090   1.301       .  A
O1082     Co1102   2.061       .  S
O1083      C1089   1.276       .  A
O1083     Co1100   1.989       .  S
O1084      C1090   1.289       .  A
O1084     Co1099   2.035       .  S
O1085      C1088   1.308       .  A
O1086      C1087   1.299       .  A
O1086     Co1101   2.084       .  S
C1087      C1294   1.487       .  S
C1088      C1255   1.488       .  S
C1089      C1269   1.489       .  S
C1090      C1280   1.511       .  S
O1091      C1104   1.285       .  A
O1091     Co1099   2.036       .  S
O1092      C1105   1.270       .  A
O1092     Co1100   1.979       .  S
O1093      C1106   1.274       .  A
O1093     Co1101   1.998       .  S
O1094      C1107   1.276       .  A
O1095      C1107   1.261       .  A
O1095     Co1100   1.931       .  S
O1096      C1106   1.286       .  A
O1096     Co1099   2.061       .  S
O1097      C1104   1.272       .  A
O1097     Co1102   2.011       .  S
O1098      C1105   1.287       .  A
Co1099     O1103   1.866       .  S
Co1101     O1103   2.065       .  S
Co1102     O1103   2.019       .  S
C1104      C1325   1.469       .  S
C1105      C1451   1.480       .  S
C1106      C1465   1.487       .  S
C1107      C1308   1.461       .  S
O1108      C1116   1.277       .  A
O1108     Co1128   2.023       .  S
O1109      C1117   1.263       .  A
O1110      C1118   1.280       .  A
O1110     Co1130   2.007       .  S
O1111      C1119   1.285       .  A
O1111     Co1131   2.016       .  S
O1112      C1118   1.270       .  A
O1112     Co1129   1.976       .  S
O1113      C1119   1.273       .  A
O1114      C1117   1.281       .  A
O1114     Co1131   2.000       .  S
O1115      C1116   1.274       .  A
O1115     Co1130   1.990       .  S
C1116      C1238   1.481       .  S
C1117      C1196   1.474       .  S
C1118      C1224   1.477       .  S
C1119      C1210   1.482       .  S
O1120      C1133   1.284       .  A
O1121      C1134   1.286       .  A
O1121     Co1129   2.020       .  S
O1122      C1135   1.272       .  A
O1122     Co1130   2.002       .  S
O1123      C1136   1.275       .  A
O1123     Co1131   2.012       .  S
O1124      C1136   1.284       .  A
O1125      C1135   1.283       .  A
O1125     Co1128   2.001       .  S
O1126      C1133   1.261       .  A
O1126     Co1131   1.968       .  S
O1127      C1134   1.260       .  A
O1127     Co1130   1.977       .  S
Co1128     O1132   2.099       .  S
Co1129     O1132   2.097       .  S
Co1130     O1132   2.099       .  S
C1133      C1423   1.483       .  S
C1134      C1353   1.494       .  S
C1135      C1434   1.489       .  S
C1136      C1339   1.480       .  S
O1137      C1145   1.273       .  A
O1137     Co1157   1.993       .  S
O1138      C1146   1.279       .  A
O1138     Co1158   2.009       .  S
O1139      C1147   1.268       .  A
O1139     Co3199   1.991       .  S
O1140      C1148   1.277       .  A
O1140     Co3200   2.026   1_455  S
O1141      C1147   1.281       .  A
O1141     Co1158   1.995       .  S
O1142      C1148   1.270       .  A
O1142     Co1157   1.975       .  S
O1143      C1146   1.260       .  A
O1143     Co1160   1.962       .  S
O1144      C1145   1.269       .  A
O1144     Co1159   1.993   1_455  S
C1145      C1518   1.467       .  S
C1146      C1395   1.484       .  S
C1147      C1409   1.482       .  S
C1148      C1507   1.468       .  S
O1149      C1162   1.269       .  A
O1149     Co1157   2.011       .  S
O1150      C1163   1.269       .  A
O1150     Co1158   1.997       .  S
O1151      C1164   1.282       .  A
O1151     Co1159   2.003   1_455  S
O1152      C1165   1.281       .  A
O1152     Co1160   2.004       .  S
O1153      C1165   1.271       .  A
O1153     Co1158   1.994       .  S
O1154      C1164   1.266       .  A
O1154     Co1157   1.983       .  S
O1155      C1162   1.272       .  A
O1155     Co3200   1.992   1_455  S
O1156      C1163   1.284       .  A
O1156     Co3199   2.015       .  S
Co1157     O3201   2.095   1_455  S
Co1158     O1161   2.095       .  S
Co1159     O3179   1.987       .  S
Co1159     O3196   2.005       .  S
Co1159     O3201   2.097       .  S
Co1160     O3180   2.034       .  S
Co1160     O3195   1.995       .  S
Co1160     O1161   2.092       .  S
O1161     Co3197   2.099       .  S
O1161     Co3199   2.102       .  S
C1162      C1241   1.483       .  S
C1163      C1283   1.496       .  S
C1164      C1297   1.483       .  S
C1165      C1227   1.473       .  S
O1166      C1174   1.268       .  A
O1166     Co1186   1.974       .  S
O1167      C1175   1.276       .  A
O1167     Co3227   2.010       .  S
O1168      C1176   1.279       .  A
O1168     Co1188   2.002       .  S
O1169      C1177   1.270       .  A
O1169     Co1189   1.993       .  S
O1170      C1176   1.266       .  A
O1170     Co1187   1.993   1_455  S
O1171      C1177   1.263       .  A
O1171     Co3226   1.994       .  S
O1172      C1175   1.280       .  A
O1172     Co1189   1.995       .  S
O1173      C1174   1.287       .  A
O1173     Co1188   2.011       .  S
C1174      C1493   1.485       .  S
C1175      C1367   1.471       .  S
C1176      C1479   1.497       .  S
C1177      C1378   1.470       .  S
O1178      C1191   1.277       .  A
O1178     Co3226   1.986       .  S
O1179      C1192   1.281       .  A
O1179     Co1187   2.004   1_455  S
O1180      C1193   1.259       .  A
O1180     Co1188   1.969       .  S
O1181      C1194   1.257       .  A
O1181     Co1189   1.970       .  S
O1182      C1194   1.276       .  A
O1182     Co3227   2.004       .  S
O1183      C1193   1.278       .  A
O1183     Co1186   1.991       .  S
O1184      C1191   1.281       .  A
O1184     Co1189   2.038       .  S
O1185      C1192   1.277       .  A
O1185     Co1188   2.009       .  S
Co1186     O3211   1.994   1_455  S
Co1186     O3218   1.983   1_455  S
Co1186     O1190   2.097   1_455  S
Co1187     O3207   2.009       .  S
Co1187     O3222   2.007       .  S
Co1187     O1190   2.095       .  S
Co1188     O1190   2.100   1_455  S
Co1189     O3230   2.096       .  S
O1190     Co3229   2.098       .  S
C1191      C1252   1.487       .  S
C1192      C1213   1.477       .  S
C1193      C1266   1.462       .  S
C1194      C1199   1.484       .  S
C1195      C1196   1.391       .  A
C1195      C1200   1.398       .  A
C1195      H1202   1.084       .  S
C1196      C1197   1.421       .  A
C1197      C1198   1.404       .  A
C1197      N1204   1.433       .  S
C1198      C1199   1.396       .  A
C1198      H1203   1.084       .  S
C1199      C1200   1.426       .  A
C1200      N1201   1.435       .  S
N1201      H1205   1.044       .  S
N1201      H1206   1.045       .  S
N1204      H1207   1.044   1_565  S
N1204      H1208   1.046       .  S
C1209      C1210   1.406       .  A
C1209      C1214   1.392       .  A
C1209      H1216   1.085       .  S
C1210      C1211   1.408       .  A
C1211      C1212   1.420       .  A
C1211      N1218   1.430       .  S
C1212      C1213   1.411       .  A
C1212      H1217   1.082       .  S
C1213      C1214   1.404       .  A
C1214      N1215   1.434       .  S
N1215      H1219   1.046       .  S
N1215      H1220   1.046       .  S
N1218      H1221   1.044   1_565  S
C1223      C1224   1.401       .  A
C1223      C1228   1.381       .  A
C1223      H1230   1.083       .  S
C1224      C1225   1.407       .  A
C1225      C1226   1.419       .  A
C1225      N1232   1.429       .  S
C1226      C1227   1.405       .  A
C1226      H1231   1.081       .  S
C1227      C1228   1.412       .  A
C1228      N1229   1.431       .  S
N1229      H1233   1.042       .  S
N1229      H1234   1.045       .  S
N1232      H1235   1.045       .  S
N1232      H1236   1.044       .  S
C1237      C1238   1.409       .  A
C1237      C1242   1.415       .  A
C1237      H1244   1.081       .  S
C1238      C1239   1.406       .  A
C1239      C1240   1.396       .  A
C1239      N1246   1.432       .  S
C1240      C1241   1.402       .  A
C1240      H1245   1.080       .  S
C1241      C1242   1.404       .  A
C1242      N1243   1.427       .  S
N1243      H1247   1.044       .  S
N1243      H1248   1.041       .  S
N1246      H1249   1.046       .  S
N1246      H1250   1.046       .  S
C1251      C1252   1.394       .  A
C1251      C1256   1.402       .  A
C1251      H1258   1.063       .  S
C1252      C1253   1.415       .  A
C1253      C1254   1.410       .  A
C1253      N1260   1.431       .  S
C1254      C1255   1.411       .  A
C1254      H1259   1.084       .  S
C1255      C1256   1.404       .  A
C1256      N1257   1.435       .  S
N1257      H1261   1.037       .  S
N1257      H1262   1.045       .  S
N1260      H1263   1.043       .  S
N1260      H1264   1.045       .  S
C1265      C1266   1.414       .  A
C1265      C1270   1.409       .  A
C1265      H1272   1.084       .  S
C1266      C1267   1.392       .  A
C1267      C1268   1.389       .  A
C1267      N1274   1.433       .  S
C1268      C1269   1.419       .  A
C1268      H1273   1.083       .  S
C1269      C1270   1.405       .  A
C1270      N1271   1.432       .  S
N1271      H1275   1.045       .  S
N1271      H1276   1.046       .  S
N1274      H1277   1.046       .  S
N1274      H1278   1.046       .  S
C1279      C1280   1.419       .  A
C1279      C1284   1.412       .  A
C1279      H1286   1.079       .  S
C1280      C1281   1.416       .  A
C1281      C1282   1.402       .  A
C1281      N1288   1.432       .  S
C1282      C1283   1.412       .  A
C1282      H1287   1.084       .  S
C1283      C1284   1.402       .  A
C1284      N1285   1.432       .  S
N1285      H1289   1.046       .  S
N1285      H1290   1.045       .  S
N1288      H1291   1.044       .  S
N1288      H1292   1.046       .  S
C1293      C1294   1.396       .  A
C1293      C1298   1.398       .  A
C1293      H1300   1.084       .  S
C1294      C1295   1.423       .  A
C1295      C1296   1.405       .  A
C1295      N1302   1.433       .  S
C1296      C1297   1.397       .  A
C1296      H1301   1.084       .  S
C1297      C1298   1.422       .  A
C1298      N1299   1.433       .  S
N1299      H1303   1.046       .  S
N1299      H1304   1.045       .  S
N1302      H1305   1.045       .  S
N1302      H1306   1.044       .  S
C1307      C1308   1.406       .  A
C1307      C1312   1.389       .  A
C1307      H1314   1.084       .  S
C1308      C1309   1.402       .  A
C1309      C1310   1.393       .  A
C1309      N1316   1.432       .  S
C1310      C1311   1.407       .  A
C1310      H1315   1.082       .  S
C1311      C1312   1.406       .  A
C1312      N1313   1.434       .  S
N1313      H1317   1.045       .  S
N1313      H1318   1.046       .  S
N1316      H1319   1.046       .  S
N1316      H1320   1.046       .  S
C1321      C1322   1.410       .  A
C1321      C1326   1.385       .  A
C1321      H1328   1.084       .  S
C1322      C1323   1.407       .  A
C1323      C1324   1.411       .  A
C1323      N1330   1.436       .  S
C1324      C1325   1.409       .  A
C1324      H1329   1.082       .  S
C1325      C1326   1.400       .  A
C1326      N1327   1.433       .  S
N1327      H1331   1.046       .  S
N1327      H1332   1.046       .  S
N1330      H1333   1.045       .  S
N1330      H1334   1.045       .  S
C1335      C1336   1.403       .  A
C1335      C1340   1.402       .  A
C1335      H1342   1.083       .  S
C1336      C1337   1.406       .  A
C1337      C1338   1.408       .  A
C1337      N1344   1.427       .  S
C1338      C1339   1.401       .  A
C1338      H1343   1.076       .  S
C1339      C1340   1.411       .  A
C1340      N1341   1.433       .  S
N1341      H1345   1.046       .  S
N1341      H1346   1.045       .  S
N1344      H1347   1.038       .  S
N1344      H1348   1.041       .  S
C1349      C1350   1.389       .  A
C1349      C1354   1.397       .  A
C1349      H1356   1.085       .  S
C1350      C1351   1.412       .  A
C1351      C1352   1.406       .  A
C1351      N1358   1.427       .  S
C1352      C1353   1.397       .  A
C1352      H1357   1.083       .  S
C1353      C1354   1.434       .  A
C1354      N1355   1.436       .  S
N1355      H1359   1.046       .  S
N1355      H1360   1.046       .  S
N1358      H1361   1.045       .  S
N1358      H1872   1.044       .  S
H1362      N1868   1.042       .  S
C1363      C1364   1.403       .  A
C1363      C1368   1.402       .  A
C1363      H1370   1.084       .  S
C1364      C1365   1.411       .  A
C1365      C1366   1.402       .  A
C1365      N1372   1.431       .  S
C1366      C1367   1.400       .  A
C1366      H1371   1.076       .  S
C1367      C1368   1.406       .  A
C1368      N1369   1.429       .  S
N1369      H1373   1.045       .  S
N1369      H1374   1.046       .  S
N1372      H1375   1.043       .  S
N1372      H1376   1.042       .  S
C1377      C1378   1.403       .  A
C1377      C1382   1.404       .  A
C1377      H1384   1.076       .  S
C1378      C1379   1.406       .  A
C1379      C1380   1.396       .  A
C1379      N1386   1.432       .  S
C1380      C1381   1.405       .  A
C1380      H1385   1.085       .  S
C1381      C1382   1.407       .  A
C1382      N1383   1.431       .  S
N1383      H1387   1.045       .  S
N1383      H1388   1.041       .  S
N1386      H1389   1.046       .  S
N1386      H1390   1.044       .  S
C1391      C1392   1.414       .  A
C1391      C1396   1.406       .  A
C1391      H1398   1.080       .  S
C1392      C1393   1.395       .  A
C1393      C1394   1.396       .  A
C1393      N1400   1.433       .  S
C1394      C1395   1.420       .  A
C1394      H1399   1.084       .  S
C1395      C1396   1.403       .  A
C1396      N1397   1.437       .  S
N1397      H1401   1.045       .  S
N1397      H1402   1.045       .  S
N1400      H1403   1.045       .  S
N1400      H1404   1.046       .  S
C1405      C1406   1.395       .  A
C1405      C1410   1.401       .  A
C1405      H1412   1.084       .  S
C1406      C1407   1.423       .  A
C1407      C1408   1.401       .  A
C1407      N1414   1.433       .  S
C1408      C1409   1.394       .  A
C1408      H1413   1.084       .  S
C1409      C1410   1.424       .  A
C1410      N1411   1.434       .  S
N1411      H1415   1.045       .  S
N1411      H1416   1.046       .  S
N1414      H1417   1.042       .  S
N1414      H1418   1.046       .  S
C1419      C1420   1.418       .  A
C1419      C1424   1.399       .  A
C1419      H1426   1.084       .  S
C1420      C1421   1.403       .  A
C1421      C1422   1.397       .  A
C1421      N1428   1.434       .  S
C1422      C1423   1.419       .  A
C1422      H1427   1.084       .  S
C1423      C1424   1.403       .  A
C1424      N1425   1.433       .  S
N1425      H1429   1.046       .  S
N1425      H1430   1.044       .  S
N1428      H1431   1.046       .  S
N1428      H1432   1.043       .  S
C1433      C1434   1.416       .  A
C1433      C1438   1.404       .  A
C1433      H1440   1.078       .  S
C1434      C1435   1.405       .  A
C1435      C1436   1.398       .  A
C1435      N1442   1.432       .  S
C1436      C1437   1.415       .  A
C1436      H1441   1.082       .  S
C1437      C1438   1.397       .  A
C1438      N1439   1.432       .  S
N1439      H1443   1.046       .  S
N1439      H1444   1.044       .  S
N1442      H1445   1.045       .  S
N1442      H1446   1.045       .  S
C1447      C1448   1.402       .  A
C1447      C1452   1.413       .  A
C1447      H1454   1.076       .  S
C1448      C1449   1.412       .  A
C1449      C1450   1.391       .  A
C1449      N1456   1.432       .  S
C1450      C1451   1.405       .  A
C1450      H1455   1.085       .  S
C1451      C1452   1.413       .  A
C1452      N1453   1.433       .  S
N1453      H1457   1.042       .  S
N1453      H1458   1.042       .  S
N1456      H1459   1.046       .  S
N1456      H1460   1.042       .  S
C1461      C1462   1.411       .  A
C1461      C1466   1.396       .  A
C1461      H1468   1.081       .  S
C1462      C1463   1.424       .  A
C1463      C1464   1.423       .  A
C1463      N1470   1.436       .  S
C1464      C1465   1.409       .  A
C1464      H1469   1.081       .  S
C1465      C1466   1.400       .  A
C1466      N1467   1.433       .  S
N1467      H1471   1.046       .  S
N1467      H1472   1.046       .  S
N1470      H1473   1.041       .  S
N1470      H1474   1.045   1_554  S
C1475      C1476   1.412       .  A
C1475      C1480   1.402       .  A
C1475      H1482   1.080       .  S
C1476      C1477   1.402       .  A
C1477      C1478   1.408       .  A
C1477      N1484   1.432       .  S
C1478      C1479   1.418       .  A
C1478      H1483   1.084       .  S
C1479      C1480   1.409       .  A
C1480      N1481   1.432       .  S
N1481      H1485   1.045       .  S
N1481      H1486   1.045       .  S
N1484      H1487   1.044       .  S
N1484      H1488   1.046       .  S
C1489      C1490   1.413       .  A
C1489      C1494   1.409       .  A
C1489      H1496   1.083       .  S
C1490      C1491   1.397       .  A
C1491      C1492   1.394       .  A
C1491      N1498   1.433       .  S
C1492      C1493   1.418       .  A
C1492      H1497   1.084       .  S
C1493      C1494   1.401       .  A
C1494      N1495   1.431       .  S
N1495      H1499   1.045       .  S
N1495      H1500   1.044       .  S
N1498      H1501   1.044       .  S
N1498      H1502   1.046       .  S
C1503      C1504   1.413       .  A
C1503      C1508   1.394       .  A
C1503      H1510   1.083       .  S
C1504      C1505   1.406       .  A
C1505      C1506   1.411       .  A
C1505      N1512   1.434       .  S
C1506      C1507   1.402       .  A
C1506      H1511   1.073       .  S
C1507      C1508   1.398       .  A
C1508      N1509   1.438       .  S
N1509      H1513   1.046       .  S
N1509      H1514   1.046       .  S
N1512      H1515   1.044       .  S
N1512      H3556   1.041   1_455  S
H1516      N3552   1.043       .  S
C1517      C1518   1.404       .  A
C1517      C1522   1.417       .  A
C1517      H1524   1.079       .  S
C1518      C1519   1.402       .  A
C1519      C1520   1.385       .  A
C1519      N1526   1.433       .  S
C1520      C1521   1.404       .  A
C1520      H1525   1.081       .  S
C1521      C1522   1.408       .  A
C1522      N1523   1.432       .  S
N1523      H1527   1.044       .  S
N1523      H1528   1.045       .  S
N1526      H1529   1.046       .  S
N1526      H1530   1.046       .  S
O1531      C1539   1.279       .  A
O1531     Co1551   2.006       .  S
O1532      C1540   1.283       .  A
O1532     Co1552   2.005   1_556  S
O1533      C1541   1.267       .  A
O1533     Co1553   1.994       .  S
O1534      C1542   1.267       .  A
O1534     Co1554   1.980       .  S
O1535      C1541   1.276       .  A
O1536      C1542   1.280       .  A
O1537      C1540   1.272       .  A
O1537     Co1554   2.006       .  S
O1538      C1539   1.271       .  A
O1538     Co1553   1.988       .  S
C1539      C2031   1.479       .  S
C1540      C1986   1.491       .  S
C1541      C2000   1.476       .  S
C1542      C2014   1.485       .  S
O1543      C1556   1.268       .  A
O1544      C1557   1.275       .  A
O1545      C1558   1.284       .  A
O1545     Co1553   2.029       .  S
O1546      C1559   1.285       .  A
O1546     Co1554   2.012       .  S
O1547      C1559   1.262       .  A
O1547     Co1552   1.970   1_556  S
O1548      C1558   1.272       .  A
O1548     Co1551   2.002       .  S
O1549      C1556   1.288       .  A
O1549     Co1554   2.016       .  S
O1550      C1557   1.282       .  A
O1550     Co1553   2.005       .  S
Co1551     O1555   2.095       .  S
Co1553     O1555   2.101       .  S
C1556      C1947   1.483       .  S
C1557      C1958   1.484       .  S
C1558      C1972   1.506       .  S
C1559      C1930   1.480       .  S
O1560      C1568   1.267       .  A
O1560     Co1580   1.964       .  S
O1561      C1569   1.297       .  A
O1561     Co1581   2.083       .  S
O1562      C1570   1.288       .  A
O1563      C1571   1.279       .  A
O1564      C1570   1.270       .  A
O1564     Co1581   1.962       .  S
O1565      C1571   1.266       .  A
O1565     Co1580   1.980       .  S
O1566      C1569   1.285       .  A
O1566     Co1583   1.914       .  S
O1567      C1568   1.287       .  A
O1567     Co1582   2.011       .  S
C1568      C1916   1.473       .  S
C1569      C1874   1.467       .  S
C1570      C1902   1.479       .  S
C1571      C1891   1.467       .  S
O1572      C1585   1.270       .  A
O1572     Co1580   1.930       .  S
O1573      C1586   1.278       .  A
O1573     Co1581   1.972       .  S
O1574      C1587   1.267       .  A
O1574     Co1582   1.958       .  S
O1575      C1588   1.297       .  A
O1575     Co1583   2.082       .  S
O1576      C1588   1.275       .  A
O1576     Co1581   2.003       .  S
O1577      C1587   1.277       .  A
O1577     Co1580   1.996       .  S
O1578      C1585   1.312       .  A
O1579      C1586   1.274       .  A
Co1580     O1584   1.997       .  S
Co1582     O1584   1.998       .  S
C1585      C1821   1.463       .  S
C1586      C1860   1.470       .  S
C1587      C1832   1.481       .  S
C1588      C1846   1.486       .  S
O1589      C1597   1.287       .  A
O1589     Co1609   1.897       .  S
O1590      C1598   1.278       .  A
O1590     Co1610   1.968       .  S
O1591      C1599   1.276       .  A
O1592      C1600   1.303       .  A
O1592     Co1612   2.061       .  S
O1593      C1599   1.271       .  A
O1593     Co1610   1.963       .  S
O1594      C1600   1.290       .  A
O1594     Co1609   2.031       .  S
O1595      C1598   1.309       .  A
O1596      C1597   1.299       .  A
O1596     Co1611   2.083       .  S
C1597      C1804   1.492       .  S
C1598      C1765   1.477       .  S
C1599      C1779   1.468       .  S
C1600      C1790   1.504       .  S
O1601      C1614   1.287       .  A
O1601     Co1609   2.044       .  S
O1602      C1615   1.273       .  A
O1602     Co1610   1.987       .  S
O1603      C1616   1.275       .  A
O1603     Co1611   2.004       .  S
O1604      C1617   1.275       .  A
O1605      C1617   1.260       .  A
O1605     Co1610   1.931       .  S
O1606      C1616   1.284       .  A
O1606     Co1609   2.059       .  S
O1607      C1614   1.270       .  A
O1607     Co1612   2.000       .  S
O1608      C1615   1.284       .  A
Co1609     O1613   1.875       .  S
Co1611     O1613   2.061       .  S
Co1612     O1613   2.014       .  S
C1614      C1835   1.470       .  S
C1615      C1961   1.482       .  S
C1616      C1975   1.490       .  S
C1617      C1818   1.456       .  S
O1618      C1626   1.275       .  A
O1618     Co1638   2.013       .  S
O1619      C1627   1.267       .  A
O1620      C1628   1.277       .  A
O1620     Co1640   1.995       .  S
O1621      C1629   1.290       .  A
O1621     Co1641   2.021       .  S
O1622      C1628   1.269       .  A
O1622     Co1639   1.967       .  S
O1623      C1629   1.267       .  A
O1624      C1627   1.283       .  A
O1624     Co1641   2.010       .  S
O1625      C1626   1.272       .  A
O1625     Co1640   1.986       .  S
C1626      C1748   1.473       .  S
C1627      C1706   1.492       .  S
C1628      C1734   1.472       .  S
C1629      C1720   1.489       .  S
O1630      C1643   1.285       .  A
O1631      C1644   1.287       .  A
O1631     Co1639   2.027       .  S
O1632      C1645   1.270       .  A
O1632     Co1640   1.999       .  S
O1633      C1646   1.276       .  A
O1633     Co1641   2.019       .  S
O1634      C1646   1.284       .  A
O1635      C1645   1.282       .  A
O1635     Co1638   2.004       .  S
O1636      C1643   1.262       .  A
O1636     Co1641   1.968       .  S
O1637      C1644   1.262       .  A
O1637     Co1640   1.978       .  S
Co1638     O1642   2.093       .  S
Co1639     O1642   2.096       .  S
Co1640     O1642   2.095       .  S
C1643      C1933   1.493       .  S
C1644      C1863   1.499       .  S
C1645      C1944   1.491       .  S
C1646      C1849   1.488       .  S
O1647      C1655   1.274       .  A
O1647     Co1667   1.998       .  S
O1648      C1656   1.278       .  A
O1648     Co1668   2.006       .  S
O1649      C1657   1.266       .  A
O1649     Co3709   1.982       .  S
O1650      C1658   1.278       .  A
O1650     Co3710   2.029   1_455  S
O1651      C1657   1.281       .  A
O1651     Co1668   1.996       .  S
O1652      C1658   1.272       .  A
O1652     Co1667   1.977       .  S
O1653      C1656   1.262       .  A
O1653     Co1670   1.972       .  S
O1654      C1655   1.268       .  A
O1654     Co1669   1.990   1_455  S
C1655      C2028   1.472       .  S
C1656      C1905   1.486       .  S
C1657      C1919   1.478       .  S
C1658      C2017   1.472       .  S
O1659      C1672   1.269       .  A
O1659     Co1667   2.006       .  S
O1660      C1673   1.268       .  A
O1660     Co1668   1.988       .  S
O1661      C1674   1.284       .  A
O1661     Co1669   2.006   1_455  S
O1662      C1675   1.278       .  A
O1662     Co1670   1.997       .  S
O1663      C1675   1.272       .  A
O1663     Co1668   2.001       .  S
O1664      C1674   1.268       .  A
O1664     Co1667   1.990       .  S
O1665      C1672   1.269       .  A
O1665     Co3710   1.985   1_455  S
O1666      C1673   1.283       .  A
O1666     Co3709   2.015       .  S
Co1667     O3711   2.096   1_455  S
Co1668     O1671   2.094       .  S
Co1669     O3689   1.991       .  S
Co1669     O3706   2.008       .  S
Co1669     O3711   2.099       .  S
Co1670     O3690   2.027       .  S
Co1670     O3705   1.997       .  S
Co1670     O1671   2.091       .  S
O1671     Co3707   2.095       .  S
O1671     Co3709   2.099       .  S
C1672      C1751   1.476       .  S
C1673      C1793   1.495       .  S
C1674      C1807   1.488       .  S
C1675      C1737   1.470       .  S
O1676      C1684   1.266       .  A
O1676     Co1696   1.969       .  S
O1677      C1685   1.275       .  A
O1677     Co3737   2.007       .  S
O1678      C1686   1.281       .  A
O1678     Co1698   2.002       .  S
O1679      C1687   1.268       .  A
O1679     Co1699   1.987       .  S
O1680      C1686   1.266       .  A
O1680     Co1697   1.990   1_455  S
O1681      C1687   1.263       .  A
O1681     Co3736   1.997       .  S
O1682      C1685   1.278       .  A
O1682     Co1699   1.990       .  S
O1683      C1684   1.286       .  A
O1683     Co1698   2.016       .  S
C1684      C2003   1.484       .  S
C1685      C1877   1.467       .  S
C1686      C1989   1.491       .  S
C1687      C1888   1.469       .  S
O1688      C1701   1.275       .  A
O1688     Co3736   1.981       .  S
O1689      C1702   1.286       .  A
O1689     Co1697   2.009   1_455  S
O1690      C1703   1.264       .  A
O1690     Co1698   1.984       .  S
O1691      C1704   1.259       .  A
O1691     Co1699   1.981       .  S
O1692      C1704   1.280       .  A
O1692     Co3737   2.016       .  S
O1693      C1703   1.280       .  A
O1693     Co1696   2.002       .  S
O1694      C1701   1.279       .  A
O1694     Co1699   2.029       .  S
O1695      C1702   1.271       .  A
O1695     Co1698   2.008       .  S
Co1696     O3721   2.007   1_455  S
Co1696     O3728   1.984   1_455  S
Co1696     O1700   2.098   1_455  S
Co1697     O3717   2.006       .  S
Co1697     O3732   2.008       .  S
Co1697     O1700   2.096       .  S
Co1698     O1700   2.104   1_455  S
Co1699     O3740   2.098       .  S
O1700     Co3739   2.100       .  S
C1701      C1762   1.475       .  S
C1702      C1723   1.497       .  S
C1703      C1776   1.486       .  S
C1704      C1709   1.495       .  S
C1705      C1706   1.396       .  A
C1705      C1710   1.406       .  A
C1705      H1712   1.084       .  S
C1706      C1707   1.424       .  A
C1707      C1708   1.407       .  A
C1707      N1714   1.431       .  S
C1708      C1709   1.395       .  A
C1708      H1713   1.084       .  S
C1709      C1710   1.425       .  A
C1710      N1711   1.434       .  S
N1711      H1715   1.044       .  S
N1711      H1716   1.045       .  S
N1714      H1717   1.043   1_565  S
N1714      H1718   1.045       .  S
C1719      C1720   1.394       .  A
C1719      C1724   1.409       .  A
C1719      H1726   1.084       .  S
C1720      C1721   1.426       .  A
C1721      C1722   1.405       .  A
C1721      N1728   1.434       .  S
C1722      C1723   1.395       .  A
C1722      H1727   1.084       .  S
C1723      C1724   1.430       .  A
C1724      N1725   1.438       .  S
N1725      H1729   1.045       .  S
N1725      H1730   1.046       .  S
N1728      H1731   1.046       .  S
C1733      C1734   1.402       .  A
C1733      C1738   1.379       .  A
C1733      H1740   1.085       .  S
C1734      C1735   1.404       .  A
C1735      C1736   1.411       .  A
C1735      N1742   1.427       .  S
C1736      C1737   1.410       .  A
C1736      H1741   1.077       .  S
C1737      C1738   1.410       .  A
C1738      N1739   1.429       .  S
N1739      H1743   1.041       .  S
N1739      H1744   1.046       .  S
N1742      H1745   1.044       .  S
N1742      H1746   1.043       .  S
C1747      C1748   1.408       .  A
C1747      C1752   1.413       .  A
C1747      H1754   1.081       .  S
C1748      C1749   1.405       .  A
C1749      C1750   1.392       .  A
C1749      N1756   1.432       .  S
C1750      C1751   1.400       .  A
C1750      H1755   1.081       .  S
C1751      C1752   1.405       .  A
C1752      N1753   1.428       .  S
N1753      H1757   1.044       .  S
N1753      H1758   1.041       .  S
N1756      H1759   1.046       .  S
N1756      H1760   1.046       .  S
C1761      C1762   1.395       .  A
C1761      C1766   1.405       .  A
C1761      H1768   1.074       .  S
C1762      C1763   1.413       .  A
C1763      C1764   1.401       .  A
C1763      N1770   1.431       .  S
C1764      C1765   1.404       .  A
C1764      H1769   1.084       .  S
C1765      C1766   1.406       .  A
C1766      N1767   1.433       .  S
N1767      H1771   1.041       .  S
N1767      H1772   1.045       .  S
N1770      H1773   1.041       .  S
N1770      H1774   1.045       .  S
C1775      C1776   1.414       .  A
C1775      C1780   1.401       .  A
C1775      H1782   1.084       .  S
C1776      C1777   1.399       .  A
C1777      C1778   1.405       .  A
C1777      N1784   1.425       .  S
C1778      C1779   1.404       .  A
C1778      H1783   1.084       .  S
C1779      C1780   1.404       .  A
C1780      N1781   1.433       .  S
N1781      H1785   1.046       .  S
N1781      H1786   1.044       .  S
N1784      H1787   1.044       .  S
N1784      H1788   1.042       .  S
C1789      C1790   1.418       .  A
C1789      C1794   1.413       .  A
C1789      H1796   1.078       .  S
C1790      C1791   1.414       .  A
C1791      C1792   1.397       .  A
C1791      N1798   1.433       .  S
C1792      C1793   1.413       .  A
C1792      H1797   1.084       .  S
C1793      C1794   1.402       .  A
C1794      N1795   1.431       .  S
N1795      H1799   1.045       .  S
N1795      H1800   1.045       .  S
N1798      H1801   1.044       .  S
N1798      H1802   1.046       .  S
C1803      C1804   1.397       .  A
C1803      C1808   1.401       .  A
C1803      H1810   1.084       .  S
C1804      C1805   1.424       .  A
C1805      C1806   1.406       .  A
C1805      N1812   1.433       .  S
C1806      C1807   1.397       .  A
C1806      H1811   1.084       .  S
C1807      C1808   1.423       .  A
C1808      N1809   1.433       .  S
N1809      H1813   1.045       .  S
N1809      H1814   1.044       .  S
N1812      H1815   1.045       .  S
N1812      H1816   1.044       .  S
C1817      C1818   1.404       .  A
C1817      C1822   1.391       .  A
C1817      H1824   1.084       .  S
C1818      C1819   1.401       .  A
C1819      C1820   1.390       .  A
C1819      N1826   1.433       .  S
C1820      C1821   1.406       .  A
C1820      H1825   1.083       .  S
C1821      C1822   1.407       .  A
C1822      N1823   1.433       .  S
N1823      H1827   1.045       .  S
N1823      H1828   1.046       .  S
N1826      H1829   1.046       .  S
N1826      H1830   1.046       .  S
C1831      C1832   1.411       .  A
C1831      C1836   1.383       .  A
C1831      H1838   1.084       .  S
C1832      C1833   1.406       .  A
C1833      C1834   1.410       .  A
C1833      N1840   1.432       .  S
C1834      C1835   1.411       .  A
C1834      H1839   1.083       .  S
C1835      C1836   1.401       .  A
C1836      N1837   1.434       .  S
N1837      H1841   1.046       .  S
N1837      H1842   1.046       .  S
N1840      H1843   1.045       .  S
N1840      H1844   1.044       .  S
C1845      C1846   1.408       .  A
C1845      C1850   1.408       .  A
C1845      H1852   1.084       .  S
C1846      C1847   1.406       .  A
C1847      C1848   1.406       .  A
C1847      N1854   1.429       .  S
C1848      C1849   1.401       .  A
C1848      H1853   1.068       .  S
C1849      C1850   1.410       .  A
C1850      N1851   1.432       .  S
N1851      H1855   1.046       .  S
N1851      H1856   1.045       .  S
N1854      H1857   1.043       .  S
N1854      H1858   1.043       .  S
C1859      C1860   1.388       .  A
C1859      C1864   1.396       .  A
C1859      H1866   1.085       .  S
C1860      C1861   1.413       .  A
C1861      C1862   1.411       .  A
C1861      N1868   1.430   1_556  S
C1862      C1863   1.402       .  A
C1862      H1867   1.083       .  S
C1863      C1864   1.435       .  A
C1864      N1865   1.436       .  S
N1865      H1869   1.046       .  S
N1865      H1870   1.046       .  S
N1868      H1871   1.045       .  S
C1873      C1874   1.402       .  A
C1873      C1878   1.401       .  A
C1873      H1880   1.084       .  S
C1874      C1875   1.409       .  A
C1875      C1876   1.401       .  A
C1875      N1882   1.431       .  S
C1876      C1877   1.400       .  A
C1876      H1881   1.077       .  S
C1877      C1878   1.407       .  A
C1878      N1879   1.432       .  S
N1879      H1883   1.046       .  S
N1879      H1884   1.046       .  S
N1882      H1885   1.042       .  S
N1882      H1886   1.044       .  S
C1887      C1888   1.401       .  A
C1887      C1892   1.407       .  A
C1887      H1894   1.073       .  S
C1888      C1889   1.406       .  A
C1889      C1890   1.397       .  A
C1889      N1896   1.432       .  S
C1890      C1891   1.406       .  A
C1890      H1895   1.085       .  S
C1891      C1892   1.402       .  A
C1892      N1893   1.434       .  S
N1893      H1897   1.043       .  S
N1893      H1898   1.041       .  S
N1896      H1899   1.046       .  S
N1896      H1900   1.044       .  S
C1901      C1902   1.415       .  A
C1901      C1906   1.405       .  A
C1901      H1908   1.082       .  S
C1902      C1903   1.398       .  A
C1903      C1904   1.400       .  A
C1903      N1910   1.432       .  S
C1904      C1905   1.418       .  A
C1904      H1909   1.084       .  S
C1905      C1906   1.401       .  A
C1906      N1907   1.431       .  S
N1907      H1911   1.044       .  S
N1907      H1912   1.046       .  S
N1910      H1913   1.045       .  S
N1910      H1914   1.046       .  S
C1915      C1916   1.392       .  A
C1915      C1920   1.397       .  A
C1915      H1922   1.084       .  S
C1916      C1917   1.421       .  A
C1917      C1918   1.400       .  A
C1917      N1924   1.433       .  S
C1918      C1919   1.394       .  A
C1918      H1923   1.084       .  S
C1919      C1920   1.425       .  A
C1920      N1921   1.435       .  S
N1921      H1925   1.045       .  S
N1921      H1926   1.046       .  S
N1924      H1927   1.043       .  S
N1924      H1928   1.046       .  S
C1929      C1930   1.417       .  A
C1929      C1934   1.403       .  A
C1929      H1936   1.084       .  S
C1930      C1931   1.402       .  A
C1931      C1932   1.397       .  A
C1931      N1938   1.434       .  S
C1932      C1933   1.423       .  A
C1932      H1937   1.083       .  S
C1933      C1934   1.406       .  A
C1934      N1935   1.431       .  S
N1935      H1939   1.045       .  S
N1935      H1940   1.045       .  S
N1938      H1941   1.046       .  S
N1938      H1942   1.043       .  S
C1943      C1944   1.417       .  A
C1943      C1948   1.404       .  A
C1943      H1950   1.080       .  S
C1944      C1945   1.406       .  A
C1945      C1946   1.399       .  A
C1945      N1952   1.432       .  S
C1946      C1947   1.416       .  A
C1946      H1951   1.081       .  S
C1947      C1948   1.397       .  A
C1948      N1949   1.432       .  S
N1949      H1953   1.046       .  S
N1949      H1954   1.045       .  S
N1952      H1955   1.045       .  S
N1952      H1956   1.045       .  S
C1957      C1958   1.404       .  A
C1957      C1962   1.412       .  A
C1957      H1964   1.069       .  S
C1958      C1959   1.411       .  A
C1959      C1960   1.392       .  A
C1959      N1966   1.430       .  S
C1960      C1961   1.400       .  A
C1960      H1965   1.078       .  S
C1961      C1962   1.408       .  A
C1962      N1963   1.429       .  S
N1963      H1967   1.041       .  S
N1963      H1968   1.043       .  S
N1966      H1969   1.046       .  S
N1966      H1970   1.041       .  S
C1971      C1972   1.410       .  A
C1971      C1976   1.397       .  A
C1971      H1978   1.082       .  S
C1972      C1973   1.415       .  A
C1973      C1974   1.426       .  A
C1973      N1980   1.432       .  S
C1974      C1975   1.414       .  A
C1974      H1979   1.082       .  S
C1975      C1976   1.401       .  A
C1976      N1977   1.433       .  S
N1977      H1981   1.046       .  S
N1977      H1982   1.046       .  S
N1980      H1983   1.045       .  S
N1980      H1984   1.041       .  S
C1985      C1986   1.413       .  A
C1985      C1990   1.398       .  A
C1985      H1992   1.082       .  S
C1986      C1987   1.405       .  A
C1987      C1988   1.413       .  A
C1987      N1994   1.438       .  S
C1988      C1989   1.417       .  A
C1988      H1993   1.084       .  S
C1989      C1990   1.406       .  A
C1990      N1991   1.432       .  S
N1991      H1995   1.046       .  S
N1991      H1996   1.045       .  S
N1994      H1997   1.045       .  S
N1994      H1998   1.046       .  S
C1999      C2000   1.415       .  A
C1999      C2004   1.409       .  A
C1999      H2006   1.084       .  S
C2000      C2001   1.399       .  A
C2001      C2002   1.396       .  A
C2001      N2008   1.439       .  S
C2002      C2003   1.417       .  A
C2002      H2007   1.084       .  S
C2003      C2004   1.401       .  A
C2004      N2005   1.431       .  S
N2005      H2009   1.045       .  S
N2005      H2010   1.045       .  S
N2008      H2011   1.046       .  S
N2008      H2012   1.046       .  S
C2013      C2014   1.415       .  A
C2013      C2018   1.393       .  A
C2013      H2020   1.083       .  S
C2014      C2015   1.405       .  A
C2015      C2016   1.410       .  A
C2015      N2022   1.436       .  S
C2016      C2017   1.404       .  A
C2016      H2021   1.065   1_455  S
C2017      C2018   1.396       .  A
C2018      N2019   1.433       .  S
N2019      H2023   1.044       .  S
N2019      H2024   1.045       .  S
N2022      H2025   1.043   1_455  S
N2022      H4066   1.045       .  S
H2026      N4062   1.045       .  S
C2027      C2028   1.405       .  A
C2027      C2032   1.419       .  A
C2027      H2034   1.081       .  S
C2028      C2029   1.405       .  A
C2029      C2030   1.385       .  A
C2029      N2036   1.432       .  S
C2030      C2031   1.401       .  A
C2030      H2035   1.082       .  S
C2031      C2032   1.411       .  A
C2032      N2033   1.432       .  S
N2033      H2037   1.044       .  S
N2033      H2038   1.045       .  S
N2036      H2039   1.046       .  S
N2036      H2040   1.046       .  S
O2041      C2049   1.281       .  A
O2041     Co2061   2.013       .  S
O2042      C2050   1.284       .  A
O2042     Co2062   2.012       .  S
O2043      C2051   1.269       .  A
O2043     Co2063   1.999       .  S
O2044      C2052   1.267       .  A
O2044     Co2064   1.981       .  S
O2045      C2051   1.278       .  A
O2045     Co2572   1.981       .  S
O2046      C2052   1.280       .  A
O2046     Co2571   1.999       .  S
O2047      C2050   1.272       .  A
O2047     Co2064   2.003       .  S
O2048      C2049   1.268       .  A
O2048     Co2063   1.979       .  S
C2049      C2541   1.483       .  S
C2050      C2496   1.493       .  S
C2051      C2510   1.472       .  S
C2052      C2524   1.485       .  S
O2053      C2066   1.270       .  A
O2053     Co2571   1.990       .  S
O2054      C2067   1.272       .  A
O2054     Co2572   2.000       .  S
O2055      C2068   1.287       .  A
O2055     Co2063   2.026       .  S
O2056      C2069   1.286       .  A
O2056     Co2064   2.017       .  S
O2057      C2069   1.259       .  A
O2057     Co2062   1.964       .  S
O2058      C2068   1.272       .  A
O2058     Co2061   1.994       .  S
O2059      C2066   1.287       .  A
O2059     Co2064   2.013       .  S
O2060      C2067   1.283       .  A
O2060     Co2063   2.007       .  S
Co2061     O2556   1.998   1_554  S
Co2061     O2563   1.990   1_554  S
Co2061     O2065   2.096       .  S
Co2062     O2555   1.975       .  S
Co2062     O2564   2.019       .  S
Co2062     O2575   2.098       .  S
Co2063     O2065   2.105       .  S
Co2064     O2575   2.092       .  S
O2065     Co2572   2.099       .  S
O2065     Co2574   2.093   1_554  S
C2066      C2457   1.484       .  S
C2067      C2468   1.482       .  S
C2068      C2482   1.506       .  S
C2069      C2440   1.482       .  S
O2070      C2078   1.264       .  A
O2070     Co2090   1.955       .  S
O2071      C2079   1.297       .  A
O2071     Co2091   2.078       .  S
O2072      C2080   1.285       .  A
O2072     Co2602   2.016       .  S
O2073      C2081   1.276       .  A
O2073     Co2603   2.001   1_554  S
O2074      C2080   1.271       .  A
O2074     Co2091   1.967       .  S
O2075      C2081   1.268       .  A
O2075     Co2090   1.985       .  S
O2076      C2079   1.286       .  A
O2076     Co2093   1.912       .  S
O2077      C2078   1.288       .  A
O2077     Co2092   2.013       .  S
C2078      C2426   1.468       .  S
C2079      C2384   1.467       .  S
C2080      C2412   1.478       .  S
C2081      C2401   1.460       .  S
O2082      C2095   1.267       .  A
O2082     Co2090   1.923       .  S
O2083      C2096   1.279       .  A
O2083     Co2091   1.974       .  S
O2084      C2097   1.267       .  A
O2084     Co2092   1.948       .  S
O2085      C2098   1.295       .  A
O2085     Co2093   2.068       .  S
O2086      C2098   1.275       .  A
O2086     Co2091   2.004       .  S
O2087      C2097   1.276       .  A
O2087     Co2090   1.994       .  S
O2088      C2095   1.312       .  A
O2088     Co2603   2.088   1_554  S
O2089      C2096   1.275       .  A
O2089     Co2602   2.008       .  S
Co2090     O2094   1.997       .  S
Co2091     O2604   1.980       .  S
Co2092     O2582   2.023   1_554  S
Co2092     O2599   1.984   1_554  S
Co2092     O2094   1.998       .  S
Co2093     O2583   2.011       .  S
Co2093     O2598   2.089       .  S
Co2093     O2604   1.880       .  S
O2094     Co2603   1.887   1_554  S
O2094     Co2601   1.982   1_554  S
C2095      C2331   1.459       .  S
C2096      C2370   1.473       .  S
C2097      C2342   1.476       .  S
C2098      C2356   1.481       .  S
O2099      C2107   1.285       .  A
O2099     Co2119   1.889       .  S
O2100      C2108   1.278       .  A
O2100     Co2120   1.961       .  S
O2101      C2109   1.275       .  A
O2101     Co3141   2.017       .  S
O2102      C2110   1.302       .  A
O2102     Co2122   2.055       .  S
O2103      C2109   1.271       .  A
O2103     Co2120   1.964       .  S
O2104      C2110   1.290       .  A
O2104     Co2119   2.036       .  S
O2105      C2108   1.310       .  A
O2105     Co3142   2.103       .  S
O2106      C2107   1.301       .  A
O2106     Co2121   2.089   1_545  S
C2107      C2314   1.487       .  S
C2108      C2275   1.492       .  S
C2109      C2289   1.470       .  S
C2110      C2300   1.505       .  S
O2111      C2124   1.285       .  A
O2111     Co2119   2.032       .  S
O2112      C2125   1.271       .  A
O2112     Co2120   1.984       .  S
O2113      C2126   1.273       .  A
O2113     Co2121   2.001   1_545  S
O2114      C2127   1.274       .  A
O2114     Co3142   2.015       .  S
O2115      C2127   1.259       .  A
O2115     Co2120   1.925       .  S
O2116      C2126   1.285       .  A
O2116     Co2119   2.067       .  S
O2117      C2124   1.273       .  A
O2117     Co2122   2.012       .  S
O2118      C2125   1.285       .  A
O2118     Co3141   2.020       .  S
Co2119     O2123   1.867   1_545  S
Co2120     O3143   1.920       .  S
Co2121     O3121   2.013       .  S
Co2121     O3138   2.022       .  S
Co2121     O2123   2.060       .  S
Co2122     O3125   2.092   1_545  S
Co2122     O3134   2.031   1_545  S
Co2122     O2123   2.015   1_545  S
O2123     Co3140   1.923       .  S
C2124      C2345   1.465       .  S
C2125      C2471   1.478       .  S
C2126      C2485   1.489       .  S
C2127      C2328   1.456       .  S
O2128      C2136   1.274       .  A
O2128     Co2148   2.013       .  S
O2129      C2137   1.260       .  A
O2129     Co3169   1.974       .  S
O2130      C2138   1.278       .  A
O2130     Co2150   1.996       .  S
O2131      C2139   1.293       .  A
O2131     Co2151   2.020       .  S
O2132      C2138   1.268       .  A
O2132     Co2149   1.962   1_545  S
O2133      C2139   1.266       .  A
O2133     Co3168   1.982       .  S
O2134      C2137   1.283       .  A
O2134     Co2151   2.013       .  S
O2135      C2136   1.275       .  A
O2135     Co2150   1.994       .  S
C2136      C2258   1.479       .  S
C2137      C2216   1.478       .  S
C2138      C2244   1.471       .  S
C2139      C2230   1.491       .  S
O2140      C2153   1.286       .  A
O2140     Co3168   2.029       .  S
O2141      C2154   1.287       .  A
O2141     Co2149   2.025   1_545  S
O2142      C2155   1.270       .  A
O2142     Co2150   1.998       .  S
O2143      C2156   1.278       .  A
O2143     Co2151   2.022       .  S
O2144      C2156   1.285       .  A
O2144     Co3169   2.002       .  S
O2145      C2155   1.282       .  A
O2145     Co2148   2.004       .  S
O2146      C2153   1.257       .  A
O2146     Co2151   1.958       .  S
O2147      C2154   1.261       .  A
O2147     Co2150   1.977       .  S
Co2148     O3153   1.980   1_545  S
Co2148     O3160   2.032   1_545  S
Co2148     O2152   2.095       .  S
Co2149     O3149   1.986       .  S
Co2149     O3164   2.003       .  S
Co2149     O2152   2.098   1_565  S
Co2150     O2152   2.098       .  S
Co2151     O3172   2.089       .  S
O2152     Co3171   2.091   1_545  S
C2153      C2443   1.486       .  S
C2154      C2373   1.497       .  S
C2155      C2454   1.490       .  S
C2156      C2359   1.486       .  S
O2157      C2165   1.273       .  A
O2157     Co2177   1.993       .  S
O2158      C2166   1.282       .  A
O2158     Co2178   1.999       .  S
O2159      C2167   1.307       .  A
O2160      C2168   1.274       .  A
O2161      C2167   1.280       .  A
O2161     Co2178   1.953       .  S
O2162      C2168   1.274       .  A
O2162     Co2177   1.981       .  S
O2163      C2166   1.270       .  A
O2163     Co2180   1.982       .  S
O2164      C2165   1.271       .  A
O2164     Co2179   1.998       .  S
C2165      C2538   1.469       .  S
C2166      C2415   1.482       .  S
C2167      C2429   1.478       .  S
C2168      C2527   1.473       .  S
O2169      C2182   1.268       .  A
O2169     Co2177   2.001       .  S
O2170      C2183   1.264       .  A
O2170     Co2178   1.980       .  S
O2171      C2184   1.281       .  A
O2171     Co2179   1.995       .  S
O2172      C2185   1.273       .  A
O2172     Co2180   2.000       .  S
O2173      C2185   1.265       .  A
O2173     Co2178   1.970       .  S
O2174      C2184   1.268       .  A
O2174     Co2177   1.992       .  S
O2175      C2182   1.275       .  A
O2176      C2183   1.282       .  A
Co2178     O2181   2.062       .  S
Co2180     O2181   2.029       .  S
C2182      C2261   1.483       .  S
C2183      C2303   1.501       .  S
C2184      C2317   1.482       .  S
C2185      C2247   1.460       .  S
O2186      C2194   1.266       .  A
O2186     Co2206   1.967       .  S
O2187      C2195   1.278       .  A
O2188      C2196   1.281       .  A
O2188     Co2208   2.007       .  S
O2189      C2197   1.270       .  A
O2189     Co2209   1.991       .  S
O2190      C2196   1.265       .  A
O2190     Co2207   1.990       .  S
O2191      C2197   1.263       .  A
O2192      C2195   1.277       .  A
O2192     Co2209   1.985       .  S
O2193      C2194   1.285       .  A
O2193     Co2208   2.007       .  S
C2194      C2513   1.479       .  S
C2195      C2387   1.468       .  S
C2196      C2499   1.492       .  S
C2197      C2398   1.468       .  S
O2198      C2211   1.280       .  A
O2199      C2212   1.286       .  A
O2199     Co2207   2.004       .  S
O2200      C2213   1.265       .  A
O2200     Co2208   1.988       .  S
O2201      C2214   1.259       .  A
O2201     Co2209   1.986       .  S
O2202      C2214   1.278       .  A
O2203      C2213   1.279       .  A
O2203     Co2206   1.996       .  S
O2204      C2211   1.278       .  A
O2204     Co2209   2.015       .  S
O2205      C2212   1.272       .  A
O2205     Co2208   2.003       .  S
Co2206     O2210   2.100       .  S
Co2207     O2210   2.100       .  S
Co2208     O2210   2.100       .  S
C2211      C2272   1.482       .  S
C2212      C2233   1.491       .  S
C2213      C2286   1.486       .  S
C2214      C2219   1.497       .  S
C2215      C2216   1.389       .  A
C2215      C2220   1.400       .  A
C2215      H2222   1.084       .  S
C2216      C2217   1.424       .  A
C2217      C2218   1.405       .  A
C2217      N2224   1.432       .  S
C2218      C2219   1.396       .  A
C2218      H2223   1.084       .  S
C2219      C2220   1.431       .  A
C2220      N2221   1.433       .  S
N2221      H2225   1.043       .  S
N2221      H2226   1.045       .  S
N2224      H2227   1.044       .  S
N2224      H2228   1.046       .  S
C2229      C2230   1.394       .  A
C2229      C2234   1.403       .  A
C2229      H2236   1.084       .  S
C2230      C2231   1.436       .  A
C2231      C2232   1.400       .  A
C2231      N2238   1.434       .  S
C2232      C2233   1.394       .  A
C2232      H2237   1.084       .  S
C2233      C2234   1.425       .  A
C2234      N2235   1.432       .  S
N2235      H2239   1.046       .  S
N2235      H2240   1.043       .  S
N2238      H2241   1.037       .  S
N2238      H3262   1.044       .  S
H2242      N3258   1.044       .  S
C2243      C2244   1.404       .  A
C2243      C2248   1.377       .  A
C2243      H2250   1.085       .  S
C2244      C2245   1.404       .  A
C2245      C2246   1.409       .  A
C2245      N2252   1.425       .  S
C2246      C2247   1.408       .  A
C2246      H2251   1.080       .  S
C2247      C2248   1.408       .  A
C2248      N2249   1.433       .  S
N2249      H2253   1.042       .  S
N2249      H2254   1.046       .  S
N2252      H2255   1.044       .  S
N2252      H2256   1.042       .  S
C2257      C2258   1.408       .  A
C2257      C2262   1.416       .  A
C2257      H2264   1.082       .  S
C2258      C2259   1.408       .  A
C2259      C2260   1.396       .  A
C2259      N2266   1.433       .  S
C2260      C2261   1.404       .  A
C2260      H2265   1.084       .  S
C2261      C2262   1.405       .  A
C2262      N2263   1.427       .  S
N2263      H2267   1.044       .  S
N2263      H2268   1.042       .  S
N2266      H2269   1.046       .  S
N2266      H2270   1.046       .  S
C2271      C2272   1.394       .  A
C2271      C2276   1.390       .  A
C2271      H2278   1.058       .  S
C2272      C2273   1.412       .  A
C2273      C2274   1.413       .  A
C2273      N2280   1.433       .  S
C2274      C2275   1.415       .  A
C2274      H2279   1.083       .  S
C2275      C2276   1.405       .  A
C2276      N2277   1.434       .  S
N2277      H2281   1.043       .  S
N2277      H2282   1.044       .  S
N2280      H2283   1.045       .  S
N2280      H2284   1.045       .  S
C2285      C2286   1.414       .  A
C2285      C2290   1.403       .  A
C2285      H2292   1.084       .  S
C2286      C2287   1.398       .  A
C2287      C2288   1.405       .  A
C2287      N2294   1.424       .  S
C2288      C2289   1.403       .  A
C2288      H2293   1.083       .  S
C2289      C2290   1.405       .  A
C2290      N2291   1.433       .  S
N2291      H2295   1.046       .  S
N2291      H2296   1.044       .  S
N2294      H2297   1.044       .  S
N2294      H2298   1.040       .  S
C2299      C2300   1.418       .  A
C2299      C2304   1.411       .  A
C2299      H2306   1.078       .  S
C2300      C2301   1.413       .  A
C2301      C2302   1.400       .  A
C2301      N2308   1.433       .  S
C2302      C2303   1.416       .  A
C2302      H2307   1.083       .  S
C2303      C2304   1.403       .  A
C2304      N2305   1.431       .  S
N2305      H2309   1.045       .  S
N2305      H2310   1.045       .  S
N2308      H2311   1.044       .  S
N2308      H2312   1.046       .  S
C2313      C2314   1.398       .  A
C2313      C2318   1.400       .  A
C2313      H2320   1.084       .  S
C2314      C2315   1.422       .  A
C2315      C2316   1.402       .  A
C2315      N2322   1.433       .  S
C2316      C2317   1.396       .  A
C2316      H2321   1.084       .  S
C2317      C2318   1.421       .  A
C2318      N2319   1.433       .  S
N2319      H2323   1.045       .  S
N2319      H2324   1.044       .  S
N2322      H2325   1.045       .  S
N2322      H2326   1.044       .  S
C2327      C2328   1.404       .  A
C2327      C2332   1.388       .  A
C2327      H2334   1.084       .  S
C2328      C2329   1.404       .  A
C2329      C2330   1.392       .  A
C2329      N2336   1.432       .  S
C2330      C2331   1.405       .  A
C2330      H2335   1.083       .  S
C2331      C2332   1.408       .  A
C2332      N2333   1.434       .  S
N2333      H2337   1.046       .  S
N2333      H2338   1.046       .  S
N2336      H2339   1.046       .  S
N2336      H2340   1.046       .  S
C2341      C2342   1.411       .  A
C2341      C2346   1.381       .  A
C2341      H2348   1.084       .  S
C2342      C2343   1.405       .  A
C2343      C2344   1.412       .  A
C2343      N2350   1.436       .  S
C2344      C2345   1.412       .  A
C2344      H2349   1.082       .  S
C2345      C2346   1.397       .  A
C2346      N2347   1.433       .  S
N2347      H2351   1.046       .  S
N2347      H2352   1.046       .  S
N2350      H2353   1.045       .  S
N2350      H2354   1.045       .  S
C2355      C2356   1.405       .  A
C2355      C2360   1.405       .  A
C2355      H2362   1.084       .  S
C2356      C2357   1.405       .  A
C2357      C2358   1.407       .  A
C2357      N2364   1.429       .  S
C2358      C2359   1.402       .  A
C2358      H2363   1.070       .  S
C2359      C2360   1.410       .  A
C2360      N2361   1.432       .  S
N2361      H2365   1.046       .  S
N2361      H2366   1.045       .  S
N2364      H2367   1.042       .  S
N2364      H2368   1.042       .  S
C2369      C2370   1.389       .  A
C2369      C2374   1.397       .  A
C2369      H2376   1.085       .  S
C2370      C2371   1.412       .  A
C2371      C2372   1.409       .  A
C2371      N2378   1.426       .  S
C2372      C2373   1.399       .  A
C2372      H2377   1.083       .  S
C2373      C2374   1.434       .  A
C2374      N2375   1.435       .  S
N2375      H2379   1.046       .  S
N2375      H2380   1.046       .  S
N2378      H2381   1.045       .  S
N2378      H2892   1.044       .  S
H2382      N2888   1.043       .  S
C2383      C2384   1.404       .  A
C2383      C2388   1.400       .  A
C2383      H2390   1.084       .  S
C2384      C2385   1.408       .  A
C2385      C2386   1.398       .  A
C2385      N2392   1.431       .  S
C2386      C2387   1.398       .  A
C2386      H2391   1.073       .  S
C2387      C2388   1.410       .  A
C2388      N2389   1.435       .  S
N2389      H2393   1.046       .  S
N2389      H2394   1.045       .  S
N2392      H2395   1.044       .  S
N2392      H2396   1.044       .  S
C2397      C2398   1.402       .  A
C2397      C2402   1.410       .  A
C2397      H2404   1.082       .  S
C2398      C2399   1.409       .  A
C2399      C2400   1.391       .  A
C2399      N2406   1.432       .  S
C2400      C2401   1.398       .  A
C2400      H2405   1.085       .  S
C2401      C2402   1.410       .  A
C2402      N2403   1.437       .  S
N2403      H2407   1.046       .  S
N2403      H2408   1.044       .  S
N2406      H2409   1.046       .  S
N2406      H2410   1.044       .  S
C2411      C2412   1.413       .  A
C2411      C2416   1.401       .  A
C2411      H2418   1.082       .  S
C2412      C2413   1.400       .  A
C2413      C2414   1.401       .  A
C2413      N2420   1.433       .  S
C2414      C2415   1.415       .  A
C2414      H2419   1.084       .  S
C2415      C2416   1.401       .  A
C2416      N2417   1.432       .  S
N2417      H2421   1.043       .  S
N2417      H2422   1.046       .  S
N2420      H2423   1.044       .  S
N2420      H2424   1.046       .  S
C2425      C2426   1.395       .  A
C2425      C2430   1.399       .  A
C2425      H2432   1.084       .  S
C2426      C2427   1.421       .  A
C2427      C2428   1.398       .  A
C2427      N2434   1.434       .  S
C2428      C2429   1.395       .  A
C2428      H2433   1.084       .  S
C2429      C2430   1.420       .  A
C2430      N2431   1.434       .  S
N2431      H2435   1.045       .  S
N2431      H2436   1.046       .  S
N2434      H2437   1.042       .  S
N2434      H2438   1.046       .  S
C2439      C2440   1.421       .  A
C2439      C2444   1.403       .  A
C2439      H2446   1.084       .  S
C2440      C2441   1.401       .  A
C2441      C2442   1.396       .  A
C2441      N2448   1.434       .  S
C2442      C2443   1.422       .  A
C2442      H2447   1.084       .  S
C2443      C2444   1.403       .  A
C2444      N2445   1.433       .  S
N2445      H2449   1.046       .  S
N2445      H2450   1.044       .  S
N2448      H2451   1.046       .  S
N2448      H2452   1.043       .  S
C2453      C2454   1.417       .  A
C2453      C2458   1.406       .  A
C2453      H2460   1.081       .  S
C2454      C2455   1.406       .  A
C2455      C2456   1.399       .  A
C2455      N2462   1.432       .  S
C2456      C2457   1.415       .  A
C2456      H2461   1.082       .  S
C2457      C2458   1.398       .  A
C2458      N2459   1.432       .  S
N2459      H2463   1.046       .  S
N2459      H2464   1.045       .  S
N2462      H2465   1.045       .  S
N2462      H2466   1.045       .  S
C2467      C2468   1.402       .  A
C2467      C2472   1.414       .  A
C2467      H2474   1.075       .  S
C2468      C2469   1.415       .  A
C2469      C2470   1.392       .  A
C2469      N2476   1.433       .  S
C2470      C2471   1.399       .  A
C2470      H2475   1.083       .  S
C2471      C2472   1.413       .  A
C2472      N2473   1.432       .  S
N2473      H2477   1.042       .  S
N2473      H2478   1.043       .  S
N2476      H2479   1.045       .  S
N2476      H2480   1.042       .  S
C2481      C2482   1.411       .  A
C2481      C2486   1.397       .  A
C2481      H2488   1.083       .  S
C2482      C2483   1.423       .  A
C2483      C2484   1.424       .  A
C2483      N2490   1.436       .  S
C2484      C2485   1.410       .  A
C2484      H2489   1.082       .  S
C2485      C2486   1.401       .  A
C2486      N2487   1.433       .  S
N2487      H2491   1.046       .  S
N2487      H2492   1.046       .  S
N2490      H2493   1.042       .  S
N2490      H2494   1.044   1_554  S
C2495      C2496   1.412       .  A
C2495      C2500   1.397       .  A
C2495      H2502   1.079       .  S
C2496      C2497   1.404       .  A
C2497      C2498   1.413       .  A
C2497      N2504   1.433       .  S
C2498      C2499   1.419       .  A
C2498      H2503   1.084       .  S
C2499      C2500   1.405       .  A
C2500      N2501   1.432       .  S
N2501      H2505   1.046       .  S
N2501      H2506   1.045       .  S
N2504      H2507   1.043       .  S
N2504      H2508   1.045       .  S
C2509      C2510   1.414       .  A
C2509      C2514   1.408       .  A
C2509      H2516   1.083       .  S
C2510      C2511   1.396       .  A
C2511      C2512   1.391       .  A
C2511      N2518   1.433       .  S
C2512      C2513   1.416       .  A
C2512      H2517   1.084       .  S
C2513      C2514   1.401       .  A
C2514      N2515   1.432       .  S
N2515      H2519   1.046       .  S
N2515      H2520   1.044       .  S
N2518      H2521   1.043       .  S
N2518      H2522   1.046       .  S
C2523      C2524   1.417       .  A
C2523      C2528   1.395       .  A
C2523      H2530   1.083       .  S
C2524      C2525   1.400       .  A
C2525      C2526   1.404       .  A
C2525      N2532   1.432       .  S
C2526      C2527   1.404       .  A
C2526      H2531   1.058       .  S
C2527      C2528   1.396       .  A
C2528      N2529   1.433       .  S
N2529      H2533   1.046       .  S
N2529      H2534   1.045       .  S
N2532      H2535   1.045       .  S
C2537      C2538   1.405       .  A
C2537      C2542   1.418       .  A
C2537      H2544   1.078       .  S
C2538      C2539   1.400       .  A
C2539      C2540   1.387       .  A
C2539      N2546   1.432       .  S
C2540      C2541   1.407       .  A
C2540      H2545   1.083       .  S
C2541      C2542   1.410       .  A
C2542      N2543   1.433       .  S
N2543      H2547   1.044       .  S
N2543      H2548   1.045       .  S
N2546      H2549   1.046       .  S
N2546      H2550   1.046       .  S
O2551      C2559   1.281       .  A
O2551     Co2571   2.011       .  S
O2552      C2560   1.283       .  A
O2552     Co2572   2.010   1_556  S
O2553      C2561   1.268       .  A
O2553     Co2573   1.996       .  S
O2554      C2562   1.269       .  A
O2554     Co2574   1.986       .  S
O2555      C2561   1.274       .  A
O2556      C2562   1.281       .  A
O2557      C2560   1.272       .  A
O2557     Co2574   2.007       .  S
O2558      C2559   1.269       .  A
O2558     Co2573   1.985       .  S
C2559      C3051   1.484       .  S
C2560      C3006   1.493       .  S
C2561      C3020   1.469       .  S
C2562      C3034   1.488       .  S
O2563      C2576   1.269       .  A
O2564      C2577   1.276       .  A
O2565      C2578   1.284       .  A
O2565     Co2573   2.023       .  S
O2566      C2579   1.285       .  A
O2566     Co2574   2.015       .  S
O2567      C2579   1.263       .  A
O2567     Co2572   1.976   1_556  S
O2568      C2578   1.271       .  A
O2568     Co2571   1.994       .  S
O2569      C2576   1.288       .  A
O2569     Co2574   2.018       .  S
O2570      C2577   1.281       .  A
O2570     Co2573   2.002       .  S
Co2571     O2575   2.095       .  S
Co2573     O2575   2.102       .  S
C2576      C2967   1.487       .  S
C2577      C2978   1.484       .  S
C2578      C2992   1.506       .  S
C2579      C2950   1.483       .  S
O2580      C2588   1.266       .  A
O2580     Co2600   1.957       .  S
O2581      C2589   1.300       .  A
O2581     Co2601   2.091       .  S
O2582      C2590   1.290       .  A
O2583      C2591   1.279       .  A
O2584      C2590   1.270       .  A
O2584     Co2601   1.957       .  S
O2585      C2591   1.267       .  A
O2585     Co2600   1.979       .  S
O2586      C2589   1.284       .  A
O2586     Co2603   1.911       .  S
O2587      C2588   1.285       .  A
O2587     Co2602   2.007       .  S
C2588      C2936   1.464       .  S
C2589      C2894   1.471       .  S
C2590      C2922   1.473       .  S
C2591      C2911   1.465       .  S
O2592      C2605   1.269       .  A
O2592     Co2600   1.928       .  S
O2593      C2606   1.279       .  A
O2593     Co2601   1.980       .  S
O2594      C2607   1.267       .  A
O2594     Co2602   1.951       .  S
O2595      C2608   1.296       .  A
O2595     Co2603   2.083       .  S
O2596      C2608   1.275       .  A
O2596     Co2601   1.998       .  S
O2597      C2607   1.276       .  A
O2597     Co2600   1.991       .  S
O2598      C2605   1.312       .  A
O2599      C2606   1.270       .  A
Co2600     O2604   1.992       .  S
Co2602     O2604   1.999       .  S
C2605      C2841   1.463       .  S
C2606      C2880   1.467       .  S
C2607      C2852   1.475       .  S
C2608      C2866   1.488       .  S
O2609      C2617   1.287       .  A
O2609     Co2629   1.897       .  S
O2610      C2618   1.276       .  A
O2610     Co2630   1.951       .  S
O2611      C2619   1.276       .  A
O2611     Co3651   2.017       .  S
O2612      C2620   1.301       .  A
O2612     Co2632   2.044       .  S
O2613      C2619   1.273       .  A
O2613     Co2630   1.970       .  S
O2614      C2620   1.289       .  A
O2614     Co2629   2.030       .  S
O2615      C2618   1.306       .  A
O2615     Co3652   2.092       .  S
O2616      C2617   1.300       .  A
O2616     Co2631   2.085   1_545  S
C2617      C2824   1.492       .  S
C2618      C2785   1.483       .  S
C2619      C2799   1.475       .  S
C2620      C2810   1.489       .  S
O2621      C2634   1.289       .  A
O2621     Co2629   2.045       .  S
O2622      C2635   1.270       .  A
O2622     Co2630   1.974       .  S
O2623      C2636   1.272       .  A
O2623     Co2631   2.001   1_545  S
O2624      C2637   1.276       .  A
O2624     Co3652   2.020       .  S
O2625      C2637   1.260       .  A
O2625     Co2630   1.931       .  S
O2626      C2636   1.284       .  A
O2626     Co2629   2.056       .  S
O2627      C2634   1.270       .  A
O2627     Co2632   2.002       .  S
O2628      C2635   1.286       .  A
O2628     Co3651   2.029       .  S
Co2629     O2633   1.871   1_545  S
Co2630     O3653   1.918       .  S
Co2631     O3631   2.014       .  S
Co2631     O3648   2.013       .  S
Co2631     O2633   2.058       .  S
Co2632     O3635   2.104   1_545  S
Co2632     O3644   2.017   1_545  S
Co2632     O2633   2.012   1_545  S
O2633     Co3650   1.930       .  S
C2634      C2855   1.465       .  S
C2635      C2981   1.481       .  S
C2636      C2995   1.485       .  S
C2637      C2838   1.461       .  S
O2638      C2646   1.274       .  A
O2638     Co2658   2.010       .  S
O2639      C2647   1.260       .  A
O2639     Co3679   1.976       .  S
O2640      C2648   1.281       .  A
O2640     Co2660   2.002       .  S
O2641      C2649   1.291       .  A
O2641     Co2661   2.019       .  S
O2642      C2648   1.268       .  A
O2642     Co2659   1.974       .  S
O2643      C2649   1.267       .  A
O2643     Co3678   1.985       .  S
O2644      C2647   1.282       .  A
O2644     Co2661   2.007       .  S
O2645      C2646   1.273       .  A
O2645     Co2660   1.989       .  S
C2646      C2768   1.474       .  S
C2647      C2726   1.476       .  S
C2648      C2754   1.486       .  S
C2649      C2740   1.490       .  S
O2650      C2663   1.285       .  A
O2650     Co3678   2.035       .  S
O2651      C2664   1.287       .  A
O2651     Co2659   2.024       .  S
O2652      C2665   1.272       .  A
O2652     Co2660   2.007       .  S
O2653      C2666   1.278       .  A
O2653     Co2661   2.025       .  S
O2654      C2666   1.284       .  A
O2654     Co3679   1.999       .  S
O2655      C2665   1.284       .  A
O2655     Co2658   2.008       .  S
O2656      C2663   1.258       .  A
O2656     Co2661   1.961       .  S
O2657      C2664   1.261       .  A
O2657     Co2660   1.972       .  S
Co2658     O3663   1.974   1_545  S
Co2658     O3670   2.033   1_545  S
Co2658     O2662   2.098       .  S
Co2659     O3659   1.998   1_545  S
Co2659     O3674   2.004   1_545  S
Co2659     O2662   2.096       .  S
Co2660     O2662   2.096       .  S
Co2661     O3682   2.088       .  S
O2662     Co3681   2.093   1_545  S
C2663      C2953   1.495       .  S
C2664      C2883   1.494       .  S
C2665      C2964   1.497       .  S
C2666      C2869   1.488       .  S
O2667      C2675   1.273       .  A
O2667     Co2687   1.995       .  S
O2668      C2676   1.282       .  A
O2668     Co2688   2.008       .  S
O2669      C2677   1.273       .  A
O2670      C2678   1.276       .  A
O2671      C2677   1.290       .  A
O2671     Co2688   1.998       .  S
O2672      C2678   1.275       .  A
O2672     Co2687   1.982       .  S
O2673      C2676   1.266       .  A
O2673     Co2690   1.984       .  S
O2674      C2675   1.269       .  A
O2674     Co2689   1.995       .  S
C2675      C3048   1.470       .  S
C2676      C2925   1.489       .  S
C2677      C2939   1.476       .  S
C2678      C3037   1.476       .  S
O2679      C2692   1.266       .  A
O2679     Co2687   1.995       .  S
O2680      C2693   1.268       .  A
O2680     Co2688   1.994       .  S
O2681      C2694   1.283       .  A
O2681     Co2689   2.000       .  S
O2682      C2695   1.279       .  A
O2682     Co2690   1.994       .  S
O2683      C2695   1.271       .  A
O2683     Co2688   1.987       .  S
O2684      C2694   1.270       .  A
O2684     Co2687   1.998       .  S
O2685      C2692   1.271       .  A
O2686      C2693   1.273       .  A
Co2688     O2691   2.088       .  S
Co2690     O2691   2.022       .  S
C2692      C2771   1.477       .  S
C2693      C2813   1.484       .  S
C2694      C2827   1.489       .  S
C2695      C2757   1.467       .  S
O2696      C2704   1.265       .  A
O2696     Co2716   1.962       .  S
O2697      C2705   1.274       .  A
O2698      C2706   1.282       .  A
O2698     Co2718   2.010       .  S
O2699      C2707   1.272       .  A
O2699     Co2719   1.997       .  S
O2700      C2706   1.265       .  A
O2700     Co2717   1.990       .  S
O2701      C2707   1.260       .  A
O2702      C2705   1.284       .  A
O2702     Co2719   2.004       .  S
O2703      C2704   1.285       .  A
O2703     Co2718   2.010       .  S
C2704      C3023   1.479       .  S
C2705      C2897   1.471       .  S
C2706      C3009   1.497       .  S
C2707      C2908   1.466       .  S
O2708      C2721   1.277       .  A
O2709      C2722   1.286       .  A
O2709     Co2717   2.006       .  S
O2710      C2723   1.267       .  A
O2710     Co2718   1.996       .  S
O2711      C2724   1.256       .  A
O2711     Co2719   1.964       .  S
O2712      C2724   1.280       .  A
O2713      C2723   1.280       .  A
O2713     Co2716   1.999       .  S
O2714      C2721   1.281       .  A
O2714     Co2719   2.032       .  S
O2715      C2722   1.270       .  A
O2715     Co2718   1.998       .  S
Co2716     O2720   2.098       .  S
Co2717     O2720   2.096       .  S
Co2718     O2720   2.104       .  S
C2721      C2782   1.481       .  S
C2722      C2743   1.491       .  S
C2723      C2796   1.494       .  S
C2724      C2729   1.488       .  S
C2725      C2726   1.389       .  A
C2725      C2730   1.399       .  A
C2725      H2732   1.084       .  S
C2726      C2727   1.424       .  A
C2727      C2728   1.404       .  A
C2727      N2734   1.433       .  S
C2728      C2729   1.394       .  A
C2728      H2733   1.084       .  S
C2729      C2730   1.429       .  A
C2730      N2731   1.435       .  S
N2731      H2735   1.044       .  S
N2731      H2736   1.045       .  S
N2734      H2737   1.045       .  S
N2734      H2738   1.045       .  S
C2739      C2740   1.394       .  A
C2739      C2744   1.403       .  A
C2739      H2746   1.084       .  S
C2740      C2741   1.435       .  A
C2741      C2742   1.399       .  A
C2741      N2748   1.434       .  S
C2742      C2743   1.394       .  A
C2742      H2747   1.084       .  S
C2743      C2744   1.427       .  A
C2744      N2745   1.433       .  S
N2745      H2749   1.046       .  S
N2745      H2750   1.043       .  S
N2748      H2751   1.035       .  S
N2748      H3772   1.044       .  S
H2752      N3768   1.044       .  S
C2753      C2754   1.413       .  A
C2753      C2758   1.384       .  A
C2753      H2760   1.082       .  S
C2754      C2755   1.400       .  A
C2755      C2756   1.409       .  A
C2755      N2762   1.431       .  S
C2756      C2757   1.411       .  A
C2756      H2761   1.067       .  S
C2757      C2758   1.397       .  A
C2758      N2759   1.434       .  S
N2759      H2763   1.044       .  S
N2759      H2764   1.045       .  S
N2762      H2765   1.044       .  S
N2762      H2766   1.045       .  S
C2767      C2768   1.408       .  A
C2767      C2772   1.414       .  A
C2767      H2774   1.082       .  S
C2768      C2769   1.406       .  A
C2769      C2770   1.393       .  A
C2769      N2776   1.432       .  S
C2770      C2771   1.401       .  A
C2770      H2775   1.082       .  S
C2771      C2772   1.403       .  A
C2772      N2773   1.427       .  S
N2773      H2777   1.044       .  S
N2773      H2778   1.041       .  S
N2776      H2779   1.046       .  S
N2776      H2780   1.046       .  S
C2781      C2782   1.395       .  A
C2781      C2786   1.399       .  A
C2781      H2788   1.062       .  S
C2782      C2783   1.413       .  A
C2783      C2784   1.407       .  A
C2783      N2790   1.431       .  S
C2784      C2785   1.409       .  A
C2784      H2789   1.083       .  S
C2785      C2786   1.406       .  A
C2786      N2787   1.438       .  S
N2787      H2791   1.035       .  S
N2787      H2792   1.045       .  S
N2790      H2793   1.044       .  S
N2790      H2794   1.045       .  S
C2795      C2796   1.416       .  A
C2795      C2800   1.403       .  A
C2795      H2802   1.084       .  S
C2796      C2797   1.406       .  A
C2797      C2798   1.409       .  A
C2797      N2804   1.434       .  S
C2798      C2799   1.405       .  A
C2798      H2803   1.082       .  S
C2799      C2800   1.404       .  A
C2800      N2801   1.433       .  S
N2801      H2805   1.046       .  S
N2801      H2806   1.045       .  S
N2804      H2807   1.045       .  S
N2804      H2808   1.043       .  S
C2809      C2810   1.415       .  A
C2809      C2814   1.404       .  A
C2809      H2816   1.075       .  S
C2810      C2811   1.411       .  A
C2811      C2812   1.392       .  A
C2811      N2818   1.433       .  S
C2812      C2813   1.414       .  A
C2812      H2817   1.083       .  S
C2813      C2814   1.400       .  A
C2814      N2815   1.432       .  S
N2815      H2819   1.045       .  S
N2815      H2820   1.045       .  S
N2818      H2821   1.044       .  S
N2818      H2822   1.041       .  S
C2823      C2824   1.398       .  A
C2823      C2828   1.402       .  A
C2823      H2830   1.084       .  S
C2824      C2825   1.424       .  A
C2825      C2826   1.406       .  A
C2825      N2832   1.433       .  S
C2826      C2827   1.397       .  A
C2826      H2831   1.084       .  S
C2827      C2828   1.422       .  A
C2828      N2829   1.433       .  S
N2829      H2833   1.045       .  S
N2829      H2834   1.044       .  S
N2832      H2835   1.045       .  S
N2832      H2836   1.044       .  S
C2837      C2838   1.405       .  A
C2837      C2842   1.389       .  A
C2837      H2844   1.084       .  S
C2838      C2839   1.403       .  A
C2839      C2840   1.393       .  A
C2839      N2846   1.432       .  S
C2840      C2841   1.406       .  A
C2840      H2845   1.083       .  S
C2841      C2842   1.406       .  A
C2842      N2843   1.433       .  S
N2843      H2847   1.046       .  S
N2843      H2848   1.046       .  S
N2846      H2849   1.046       .  S
N2846      H2850   1.046       .  S
C2851      C2852   1.410       .  A
C2851      C2856   1.381       .  A
C2851      H2858   1.084       .  S
C2852      C2853   1.406       .  A
C2853      C2854   1.410       .  A
C2853      N2860   1.436       .  S
C2854      C2855   1.410       .  A
C2854      H2859   1.082       .  S
C2855      C2856   1.400       .  A
C2856      N2857   1.434       .  S
N2857      H2861   1.045       .  S
N2857      H2862   1.046       .  S
N2860      H2863   1.045       .  S
N2860      H2864   1.046       .  S
C2865      C2866   1.407       .  A
C2865      C2870   1.409       .  A
C2865      H2872   1.084       .  S
C2866      C2867   1.406       .  A
C2867      C2868   1.404       .  A
C2867      N2874   1.428       .  S
C2868      C2869   1.399       .  A
C2868      H2873   1.068       .  S
C2869      C2870   1.411       .  A
C2870      N2871   1.431       .  S
N2871      H2875   1.046       .  S
N2871      H2876   1.045       .  S
N2874      H2877   1.043       .  S
N2874      H2878   1.043       .  S
C2879      C2880   1.388       .  A
C2879      C2884   1.395       .  A
C2879      H2886   1.085       .  S
C2880      C2881   1.415       .  A
C2881      C2882   1.408       .  A
C2881      N2888   1.430   1_556  S
C2882      C2883   1.399       .  A
C2882      H2887   1.083       .  S
C2883      C2884   1.433       .  A
C2884      N2885   1.436       .  S
N2885      H2889   1.046       .  S
N2885      H2890   1.046       .  S
N2888      H2891   1.045       .  S
C2893      C2894   1.398       .  A
C2893      C2898   1.398       .  A
C2893      H2900   1.084       .  S
C2894      C2895   1.419       .  A
C2895      C2896   1.408       .  A
C2895      N2902   1.437       .  S
C2896      C2897   1.400       .  A
C2896      H2901   1.080       .  S
C2897      C2898   1.408       .  A
C2898      N2899   1.430       .  S
N2899      H2903   1.046       .  S
N2899      H2904   1.046       .  S
N2902      H2905   1.044       .  S
N2902      H2906   1.043       .  S
C2907      C2908   1.401       .  A
C2907      C2912   1.409       .  A
C2907      H2914   1.076       .  S
C2908      C2909   1.407       .  A
C2909      C2910   1.396       .  A
C2909      N2916   1.432       .  S
C2910      C2911   1.404       .  A
C2910      H2915   1.085       .  S
C2911      C2912   1.404       .  A
C2912      N2913   1.434       .  S
N2913      H2917   1.042       .  S
N2913      H2918   1.045       .  S
N2916      H2919   1.046       .  S
N2916      H2920   1.044       .  S
C2921      C2922   1.412       .  A
C2921      C2926   1.406       .  A
C2921      H2928   1.079       .  S
C2922      C2923   1.395       .  A
C2923      C2924   1.399       .  A
C2923      N2930   1.433       .  S
C2924      C2925   1.419       .  A
C2924      H2929   1.083       .  S
C2925      C2926   1.406       .  A
C2926      N2927   1.437       .  S
N2927      H2931   1.045       .  S
N2927      H2932   1.045       .  S
N2930      H2933   1.045       .  S
N2930      H2934   1.046       .  S
C2935      C2936   1.389       .  A
C2935      C2940   1.392       .  A
C2935      H2942   1.085       .  S
C2936      C2937   1.420       .  A
C2937      C2938   1.398       .  A
C2937      N2944   1.433       .  S
C2938      C2939   1.393       .  A
C2938      H2943   1.084       .  S
C2939      C2940   1.430       .  A
C2940      N2941   1.435       .  S
N2941      H2945   1.045   1_655  S
N2941      H2946   1.046       .  S
N2944      H2947   1.042       .  S
N2944      H2948   1.046       .  S
C2949      C2950   1.418       .  A
C2949      C2954   1.407       .  A
C2949      H2956   1.084       .  S
C2950      C2951   1.402       .  A
C2951      C2952   1.395       .  A
C2951      N2958   1.434       .  S
C2952      C2953   1.422       .  A
C2952      H2957   1.083       .  S
C2953      C2954   1.407       .  A
C2954      N2955   1.431       .  S
N2955      H2959   1.045       .  S
N2955      H2960   1.045       .  S
N2958      H2961   1.046       .  S
N2958      H2962   1.044       .  S
C2963      C2964   1.419       .  A
C2963      C2968   1.407       .  A
C2963      H2970   1.080       .  S
C2964      C2965   1.407       .  A
C2965      C2966   1.401       .  A
C2965      N2972   1.432       .  S
C2966      C2967   1.415       .  A
C2966      H2971   1.082       .  S
C2967      C2968   1.398       .  A
C2968      N2969   1.432       .  S
N2969      H2973   1.046       .  S
N2969      H2974   1.044       .  S
N2972      H2975   1.045       .  S
N2972      H2976   1.045       .  S
C2977      C2978   1.406       .  A
C2977      C2982   1.412       .  A
C2977      H2984   1.071       .  S
C2978      C2979   1.410       .  A
C2979      C2980   1.391       .  A
C2979      N2986   1.431       .  S
C2980      C2981   1.401       .  A
C2980      H2985   1.080       .  S
C2981      C2982   1.407       .  A
C2982      N2983   1.429       .  S
N2983      H2987   1.040       .  S
N2983      H2988   1.042       .  S
N2986      H2989   1.046       .  S
N2986      H2990   1.042       .  S
C2991      C2992   1.412       .  A
C2991      C2996   1.396       .  A
C2991      H2998   1.084       .  S
C2992      C2993   1.425       .  A
C2993      C2994   1.423       .  A
C2993      N3000   1.437       .  S
C2994      C2995   1.410       .  A
C2994      H2999   1.082       .  S
C2995      C2996   1.400       .  A
C2996      N2997   1.433       .  S
N2997      H3001   1.046       .  S
N2997      H3002   1.046       .  S
N3000      H3003   1.041       .  S
N3000      H3004   1.045       .  S
C3005      C3006   1.411       .  A
C3005      C3010   1.400       .  A
C3005      H3012   1.079       .  S
C3006      C3007   1.403       .  A
C3007      C3008   1.412       .  A
C3007      N3014   1.433       .  S
C3008      C3009   1.419       .  A
C3008      H3013   1.084       .  S
C3009      C3010   1.407       .  A
C3010      N3011   1.432       .  S
N3011      H3015   1.045       .  S
N3011      H3016   1.045       .  S
N3014      H3017   1.044       .  S
N3014      H3018   1.046       .  S
C3019      C3020   1.413       .  A
C3019      C3024   1.409       .  A
C3019      H3026   1.083       .  S
C3020      C3021   1.395       .  A
C3021      C3022   1.389       .  A
C3021      N3028   1.434       .  S
C3022      C3023   1.417       .  A
C3022      H3027   1.084       .  S
C3023      C3024   1.401       .  A
C3024      N3025   1.431       .  S
N3025      H3029   1.045       .  S
N3025      H3030   1.044       .  S
N3028      H3031   1.044       .  S
N3028      H3032   1.046       .  S
C3033      C3034   1.417       .  A
C3033      C3038   1.398       .  A
C3033      H3040   1.083       .  S
C3034      C3035   1.401       .  A
C3035      C3036   1.405       .  A
C3035      N3042   1.431       .  S
C3036      C3037   1.404       .  A
C3036      H3041   1.060       .  S
C3037      C3038   1.398       .  A
C3038      N3039   1.433       .  S
N3039      H3043   1.045       .  S
N3039      H3044   1.045       .  S
N3042      H3045   1.044       .  S
C3047      C3048   1.403       .  A
C3047      C3052   1.417       .  A
C3047      H3054   1.078       .  S
C3048      C3049   1.401       .  A
C3049      C3050   1.389       .  A
C3049      N3056   1.432       .  S
C3050      C3051   1.407       .  A
C3050      H3055   1.084       .  S
C3051      C3052   1.409       .  A
C3052      N3053   1.432       .  S
N3053      H3057   1.044       .  S
N3053      H3058   1.045       .  S
N3056      H3059   1.046       .  S
N3056      H3060   1.046       .  S
O3061      C3069   1.279       .  A
O3061     Co3081   2.005   1_554  S
O3062      C3070   1.283       .  A
O3062     Co3082   2.004       .  S
O3063      C3071   1.266       .  A
O3063     Co3083   1.986       .  S
O3064      C3072   1.271       .  A
O3064     Co3084   1.995       .  S
O3065      C3071   1.276       .  A
O3065     Co3592   1.978       .  S
O3066      C3072   1.281       .  A
O3066     Co3591   1.996       .  S
O3067      C3070   1.269       .  A
O3067     Co3084   1.997       .  S
O3068      C3069   1.271       .  A
O3068     Co3083   1.996       .  S
C3069      C3561   1.481       .  S
C3070      C3516   1.484       .  S
C3071      C3530   1.466       .  S
C3072      C3544   1.489       .  S
O3073      C3086   1.266       .  A
O3073     Co3591   1.981       .  S
O3074      C3087   1.274       .  A
O3074     Co3592   2.009       .  S
O3075      C3088   1.284       .  A
O3075     Co3083   2.024       .  S
O3076      C3089   1.288       .  A
O3076     Co3084   2.019       .  S
O3077      C3089   1.262       .  A
O3077     Co3082   1.969       .  S
O3078      C3088   1.273       .  A
O3078     Co3081   1.999   1_554  S
O3079      C3086   1.288       .  A
O3079     Co3084   2.017       .  S
O3080      C3087   1.283       .  A
O3080     Co3083   2.008       .  S
Co3081     O3576   1.998       .  S
Co3081     O3583   1.982       .  S
Co3081     O3085   2.096   1_556  S
Co3082     O3575   1.982       .  S
Co3082     O3584   1.996       .  S
Co3082     O3595   2.093       .  S
Co3083     O3085   2.105       .  S
Co3084     O3595   2.098       .  S
O3085     Co3592   2.095       .  S
O3085     Co3594   2.093   1_554  S
C3086      C3477   1.482       .  S
C3087      C3488   1.484       .  S
C3088      C3502   1.508       .  S
C3089      C3460   1.483       .  S
O3090      C3098   1.266       .  A
O3090     Co3110   1.961       .  S
O3091      C3099   1.299       .  A
O3091     Co3111   2.089       .  S
O3092      C3100   1.288       .  A
O3092     Co3622   2.025       .  S
O3093      C3101   1.278       .  A
O3093     Co3623   2.010   1_554  S
O3094      C3100   1.270       .  A
O3094     Co3111   1.961       .  S
O3095      C3101   1.267       .  A
O3095     Co3110   1.979       .  S
O3096      C3099   1.287       .  A
O3096     Co3113   1.915       .  S
O3097      C3098   1.286       .  A
O3097     Co3112   2.015       .  S
C3098      C3446   1.474       .  S
C3099      C3404   1.473       .  S
C3100      C3432   1.478       .  S
C3101      C3421   1.468       .  S
O3102      C3115   1.270       .  A
O3102     Co3110   1.933       .  S
O3103      C3116   1.278       .  A
O3103     Co3111   1.974       .  S
O3104      C3117   1.268       .  A
O3104     Co3112   1.960       .  S
O3105      C3118   1.294       .  A
O3105     Co3113   2.069       .  S
O3106      C3118   1.274       .  A
O3106     Co3111   2.000       .  S
O3107      C3117   1.277       .  A
O3107     Co3110   1.994       .  S
O3108      C3115   1.312       .  A
O3108     Co3623   2.085   1_554  S
O3109      C3116   1.273       .  A
O3109     Co3622   1.996       .  S
Co3110     O3114   1.994       .  S
Co3111     O3624   1.987       .  S
Co3112     O3602   2.017   1_554  S
Co3112     O3619   1.999   1_554  S
Co3112     O3114   2.002       .  S
Co3113     O3603   2.016       .  S
Co3113     O3618   2.082       .  S
Co3113     O3624   1.882       .  S
O3114     Co3623   1.881   1_554  S
O3114     Co3621   1.990   1_554  S
C3115      C3351   1.466       .  S
C3116      C3390   1.469       .  S
C3117      C3362   1.481       .  S
C3118      C3376   1.477       .  S
O3119      C3127   1.286       .  A
O3119     Co3139   1.889       .  S
O3120      C3128   1.277       .  A
O3120     Co3140   1.961       .  S
O3121      C3129   1.275       .  A
O3122      C3130   1.301       .  A
O3122     Co3142   2.050       .  S
O3123      C3129   1.269       .  A
O3123     Co3140   1.955       .  S
O3124      C3130   1.287       .  A
O3124     Co3139   2.025       .  S
O3125      C3128   1.309       .  A
O3126      C3127   1.301       .  A
O3126     Co3141   2.089       .  S
C3127      C3334   1.491       .  S
C3128      C3295   1.477       .  S
C3129      C3309   1.461       .  S
C3130      C3320   1.501       .  S
O3131      C3144   1.289       .  A
O3131     Co3139   2.046       .  S
O3132      C3145   1.272       .  A
O3132     Co3140   1.986       .  S
O3133      C3146   1.274       .  A
O3133     Co3141   2.003       .  S
O3134      C3147   1.279       .  A
O3135      C3147   1.258       .  A
O3135     Co3140   1.921       .  S
O3136      C3146   1.284       .  A
O3136     Co3139   2.052       .  S
O3137      C3144   1.269       .  A
O3137     Co3142   1.995       .  S
O3138      C3145   1.284       .  A
Co3139     O3143   1.869       .  S
Co3141     O3143   2.063       .  S
Co3142     O3143   2.017       .  S
C3144      C3365   1.469       .  S
C3145      C3491   1.479       .  S
C3146      C3505   1.487       .  S
C3147      C3348   1.461       .  S
O3148      C3156   1.272       .  A
O3148     Co3168   2.008       .  S
O3149      C3157   1.264       .  A
O3150      C3158   1.279       .  A
O3150     Co3170   2.000       .  S
O3151      C3159   1.288       .  A
O3151     Co3171   2.009       .  S
O3152      C3158   1.273       .  A
O3152     Co3169   1.980       .  S
O3153      C3159   1.266       .  A
O3154      C3157   1.282       .  A
O3154     Co3171   2.008       .  S
O3155      C3156   1.274       .  A
O3155     Co3170   1.993       .  S
C3156      C3278   1.478       .  S
C3157      C3236   1.483       .  S
C3158      C3264   1.472       .  S
C3159      C3250   1.484       .  S
O3160      C3173   1.286       .  A
O3161      C3174   1.285       .  A
O3161     Co3169   2.024       .  S
O3162      C3175   1.273       .  A
O3162     Co3170   2.001       .  S
O3163      C3176   1.276       .  A
O3163     Co3171   2.017       .  S
O3164      C3176   1.284       .  A
O3165      C3175   1.283       .  A
O3165     Co3168   2.001       .  S
O3166      C3173   1.259       .  A
O3166     Co3171   1.965       .  S
O3167      C3174   1.260       .  A
O3167     Co3170   1.977       .  S
Co3168     O3172   2.099       .  S
Co3169     O3172   2.100       .  S
Co3170     O3172   2.095       .  S
C3173      C3463   1.494       .  S
C3174      C3393   1.496       .  S
C3175      C3474   1.488       .  S
C3176      C3379   1.485       .  S
O3177      C3185   1.275       .  A
O3177     Co3197   1.998       .  S
O3178      C3186   1.279       .  A
O3178     Co3198   2.007       .  S
O3179      C3187   1.266       .  A
O3180      C3188   1.279       .  A
O3181      C3187   1.281       .  A
O3181     Co3198   1.995       .  S
O3182      C3188   1.273       .  A
O3182     Co3197   1.979       .  S
O3183      C3186   1.262       .  A
O3183     Co3200   1.973       .  S
O3184      C3185   1.268       .  A
O3184     Co3199   1.991       .  S
C3185      C3558   1.471       .  S
C3186      C3435   1.483       .  S
C3187      C3449   1.479       .  S
C3188      C3547   1.477       .  S
O3189      C3202   1.268       .  A
O3189     Co3197   2.007       .  S
O3190      C3203   1.268       .  A
O3190     Co3198   1.988       .  S
O3191      C3204   1.285       .  A
O3191     Co3199   2.007       .  S
O3192      C3205   1.278       .  A
O3192     Co3200   1.997       .  S
O3193      C3205   1.272       .  A
O3193     Co3198   1.996       .  S
O3194      C3204   1.267       .  A
O3194     Co3197   1.985       .  S
O3195      C3202   1.273       .  A
O3196      C3203   1.282       .  A
Co3198     O3201   2.093       .  S
Co3200     O3201   2.091       .  S
C3202      C3281   1.481       .  S
C3203      C3323   1.484       .  S
C3204      C3337   1.486       .  S
C3205      C3267   1.469       .  S
O3206      C3214   1.267       .  A
O3206     Co3226   1.968       .  S
O3207      C3215   1.276       .  A
O3208      C3216   1.279       .  A
O3208     Co3228   2.005       .  S
O3209      C3217   1.271       .  A
O3209     Co3229   1.995       .  S
O3210      C3216   1.263       .  A
O3210     Co3227   1.979       .  S
O3211      C3217   1.263       .  A
O3212      C3215   1.281       .  A
O3212     Co3229   1.997       .  S
O3213      C3214   1.284       .  A
O3213     Co3228   2.005       .  S
C3214      C3533   1.477       .  S
C3215      C3407   1.473       .  S
C3216      C3519   1.488       .  S
C3217      C3418   1.472       .  S
O3218      C3231   1.276       .  A
O3219      C3232   1.284       .  A
O3219     Co3227   1.994       .  S
O3220      C3233   1.264       .  A
O3220     Co3228   1.983       .  S
O3221      C3234   1.258       .  A
O3221     Co3229   1.975       .  S
O3222      C3234   1.278       .  A
O3223      C3233   1.278       .  A
O3223     Co3226   1.993       .  S
O3224      C3231   1.280       .  A
O3224     Co3229   2.032       .  S
O3225      C3232   1.273       .  A
O3225     Co3228   2.007       .  S
Co3226     O3230   2.098       .  S
Co3227     O3230   2.092       .  S
Co3228     O3230   2.105       .  S
C3231      C3292   1.479       .  S
C3232      C3253   1.486       .  S
C3233      C3306   1.479       .  S
C3234      C3239   1.487       .  S
C3235      C3236   1.394       .  A
C3235      C3240   1.404       .  A
C3235      H3242   1.084       .  S
C3236      C3237   1.423       .  A
C3237      C3238   1.403       .  A
C3237      N3244   1.432       .  S
C3238      C3239   1.394       .  A
C3238      H3243   1.084       .  S
C3239      C3240   1.425       .  A
C3240      N3241   1.434       .  S
N3241      H3245   1.045       .  S
N3241      H3246   1.045       .  S
N3244      H3247   1.045   1_565  S
N3244      H3248   1.046       .  S
C3249      C3250   1.395       .  A
C3249      C3254   1.402       .  A
C3249      H3256   1.084       .  S
C3250      C3251   1.432       .  A
C3251      C3252   1.396       .  A
C3251      N3258   1.434       .  S
C3252      C3253   1.394       .  A
C3252      H3257   1.084       .  S
C3253      C3254   1.423       .  A
C3254      N3255   1.433       .  S
N3255      H3259   1.046       .  S
N3255      H3260   1.043       .  S
N3258      H3261   1.038   1_565  S
C3263      C3264   1.401       .  A
C3263      C3268   1.378       .  A
C3263      H3270   1.081       .  S
C3264      C3265   1.408       .  A
C3265      C3266   1.416       .  A
C3265      N3272   1.429       .  S
C3266      C3267   1.409       .  A
C3266      H3271   1.081       .  S
C3267      C3268   1.410       .  A
C3268      N3269   1.433       .  S
N3269      H3273   1.042       .  S
N3269      H3274   1.045       .  S
N3272      H3275   1.044       .  S
N3272      H3276   1.044       .  S
C3277      C3278   1.406       .  A
C3277      C3282   1.413       .  A
C3277      H3284   1.082       .  S
C3278      C3279   1.410       .  A
C3279      C3280   1.397       .  A
C3279      N3286   1.433       .  S
C3280      C3281   1.402       .  A
C3280      H3285   1.083       .  S
C3281      C3282   1.403       .  A
C3282      N3283   1.425       .  S
N3283      H3287   1.043       .  S
N3283      H3288   1.040       .  S
N3286      H3289   1.046       .  S
N3286      H3290   1.046       .  S
C3291      C3292   1.395       .  A
C3291      C3296   1.402       .  A
C3291      H3298   1.069       .  S
C3292      C3293   1.415       .  A
C3293      C3294   1.404       .  A
C3293      N3300   1.431       .  S
C3294      C3295   1.404       .  A
C3294      H3299   1.084       .  S
C3295      C3296   1.402       .  A
C3296      N3297   1.433       .  S
N3297      H3301   1.044       .  S
N3297      H3302   1.039       .  S
N3300      H3303   1.042       .  S
N3300      H3304   1.045       .  S
C3305      C3306   1.413       .  A
C3305      C3310   1.399       .  A
C3305      H3312   1.084       .  S
C3306      C3307   1.399       .  A
C3307      C3308   1.402       .  A
C3307      N3314   1.426       .  S
C3308      C3309   1.402       .  A
C3308      H3313   1.084       .  S
C3309      C3310   1.404       .  A
C3310      N3311   1.434       .  S
N3311      H3315   1.046       .  S
N3311      H3316   1.044       .  S
N3314      H3317   1.044       .  S
N3314      H3318   1.042       .  S
C3319      C3320   1.416       .  A
C3319      C3324   1.406       .  A
C3319      H3326   1.076       .  S
C3320      C3321   1.415       .  A
C3321      C3322   1.399       .  A
C3321      N3328   1.432       .  S
C3322      C3323   1.411       .  A
C3322      H3327   1.084       .  S
C3323      C3324   1.397       .  A
C3324      N3325   1.431       .  S
N3325      H3329   1.045       .  S
N3325      H3330   1.043       .  S
N3328      H3331   1.045       .  S
N3328      H3332   1.045       .  S
C3333      C3334   1.397       .  A
C3333      C3338   1.399       .  A
C3333      H3340   1.084       .  S
C3334      C3335   1.424       .  A
C3335      C3336   1.407       .  A
C3335      N3342   1.433       .  S
C3336      C3337   1.398       .  A
C3336      H3341   1.084       .  S
C3337      C3338   1.422       .  A
C3338      N3339   1.433       .  S
N3339      H3343   1.046       .  S
N3339      H3344   1.045       .  S
N3342      H3345   1.045       .  S
N3342      H3346   1.045       .  S
C3347      C3348   1.406       .  A
C3347      C3352   1.391       .  A
C3347      H3354   1.084       .  S
C3348      C3349   1.400       .  A
C3349      C3350   1.392       .  A
C3349      N3356   1.432       .  S
C3350      C3351   1.408       .  A
C3350      H3355   1.083       .  S
C3351      C3352   1.406       .  A
C3352      N3353   1.433       .  S
N3353      H3357   1.045       .  S
N3353      H3358   1.046       .  S
N3356      H3359   1.046       .  S
N3356      H3360   1.046       .  S
C3361      C3362   1.412       .  A
C3361      C3366   1.385       .  A
C3361      H3368   1.084       .  S
C3362      C3363   1.408       .  A
C3363      C3364   1.411       .  A
C3363      N3370   1.436       .  S
C3364      C3365   1.409       .  A
C3364      H3369   1.083       .  S
C3365      C3366   1.402       .  A
C3366      N3367   1.435       .  S
N3367      H3371   1.046       .  S
N3367      H3372   1.046       .  S
N3370      H3373   1.046       .  S
N3370      H3374   1.046       .  S
C3375      C3376   1.403       .  A
C3375      C3380   1.404       .  A
C3375      H3382   1.084       .  S
C3376      C3377   1.402       .  A
C3377      C3378   1.407       .  A
C3377      N3384   1.427       .  S
C3378      C3379   1.401       .  A
C3378      H3383   1.070       .  S
C3379      C3380   1.411       .  A
C3380      N3381   1.431       .  S
N3381      H3385   1.046       .  S
N3381      H3386   1.045       .  S
N3384      H3387   1.041       .  S
N3384      H3388   1.043       .  S
C3389      C3390   1.387       .  A
C3389      C3394   1.395       .  A
C3389      H3396   1.085       .  S
C3390      C3391   1.413       .  A
C3391      C3392   1.408       .  A
C3391      N3398   1.428       .  S
C3392      C3393   1.400       .  A
C3392      H3397   1.083       .  S
C3393      C3394   1.435       .  A
C3394      N3395   1.436       .  S
N3395      H3399   1.046       .  S
N3395      H3400   1.046       .  S
N3398      H3401   1.045       .  S
N3398      H3912   1.043       .  S
H3402      N3908   1.043       .  S
C3403      C3404   1.404       .  A
C3403      C3408   1.405       .  A
C3403      H3410   1.084       .  S
C3404      C3405   1.407       .  A
C3405      C3406   1.401       .  A
C3405      N3412   1.430       .  S
C3406      C3407   1.401       .  A
C3406      H3411   1.073       .  S
C3407      C3408   1.408       .  A
C3408      N3409   1.431       .  S
N3409      H3413   1.046       .  S
N3409      H3414   1.045       .  S
N3412      H3415   1.044       .  S
N3412      H3416   1.043       .  S
C3417      C3418   1.403       .  A
C3417      C3422   1.404       .  A
C3417      H3424   1.074       .  S
C3418      C3419   1.407       .  A
C3419      C3420   1.396       .  A
C3419      N3426   1.432       .  S
C3420      C3421   1.405       .  A
C3420      H3425   1.085       .  S
C3421      C3422   1.407       .  A
C3422      N3423   1.431       .  S
N3423      H3427   1.045       .  S
N3423      H3428   1.042       .  S
N3426      H3429   1.046       .  S
N3426      H3430   1.044       .  S
C3431      C3432   1.416       .  A
C3431      C3436   1.404       .  A
C3431      H3438   1.081       .  S
C3432      C3433   1.398       .  A
C3433      C3434   1.399       .  A
C3433      N3440   1.432       .  S
C3434      C3435   1.417       .  A
C3434      H3439   1.084       .  S
C3435      C3436   1.400       .  A
C3436      N3437   1.432       .  S
N3437      H3441   1.044       .  S
N3437      H3442   1.046       .  S
N3440      H3443   1.045       .  S
N3440      H3444   1.046       .  S
C3445      C3446   1.394       .  A
C3445      C3450   1.400       .  A
C3445      H3452   1.084       .  S
C3446      C3447   1.421       .  A
C3447      C3448   1.399       .  A
C3447      N3454   1.432       .  S
C3448      C3449   1.393       .  A
C3448      H3453   1.084       .  S
C3449      C3450   1.425       .  A
C3450      N3451   1.434       .  S
N3451      H3455   1.045   1_655  S
N3451      H3456   1.046       .  S
N3454      H3457   1.042       .  S
N3454      H3458   1.046       .  S
C3459      C3460   1.418       .  A
C3459      C3464   1.405       .  A
C3459      H3466   1.083       .  S
C3460      C3461   1.403       .  A
C3461      C3462   1.397       .  A
C3461      N3468   1.434       .  S
C3462      C3463   1.423       .  A
C3462      H3467   1.083       .  S
C3463      C3464   1.406       .  A
C3464      N3465   1.431       .  S
N3465      H3469   1.045       .  S
N3465      H3470   1.045       .  S
N3468      H3471   1.045       .  S
N3468      H3472   1.043       .  S
C3473      C3474   1.416       .  A
C3473      C3478   1.403       .  A
C3473      H3480   1.077       .  S
C3474      C3475   1.405       .  A
C3475      C3476   1.398       .  A
C3475      N3482   1.432       .  S
C3476      C3477   1.416       .  A
C3476      H3481   1.081       .  S
C3477      C3478   1.395       .  A
C3478      N3479   1.432       .  S
N3479      H3483   1.046       .  S
N3479      H3484   1.044       .  S
N3482      H3485   1.045       .  S
N3482      H3486   1.045       .  S
C3487      C3488   1.403       .  A
C3487      C3492   1.412       .  A
C3487      H3494   1.069       .  S
C3488      C3489   1.413       .  A
C3489      C3490   1.393       .  A
C3489      N3496   1.431       .  S
C3490      C3491   1.398       .  A
C3490      H3495   1.080       .  S
C3491      C3492   1.407       .  A
C3492      N3493   1.429       .  S
N3493      H3497   1.040       .  S
N3493      H3498   1.042       .  S
N3496      H3499   1.046       .  S
N3496      H3500   1.042       .  S
C3501      C3502   1.410       .  A
C3501      C3506   1.394       .  A
C3501      H3508   1.080       .  S
C3502      C3503   1.425       .  A
C3503      C3504   1.425       .  A
C3503      N3510   1.436       .  S
C3504      C3505   1.411       .  A
C3504      H3509   1.081       .  S
C3505      C3506   1.399       .  A
C3506      N3507   1.433       .  S
N3507      H3511   1.045       .  S
N3507      H3512   1.046       .  S
N3510      H3513   1.041       .  S
N3510      H3514   1.045   1_554  S
C3515      C3516   1.413       .  A
C3515      C3520   1.399       .  A
C3515      H3522   1.082       .  S
C3516      C3517   1.398       .  A
C3517      C3518   1.406       .  A
C3517      N3524   1.433       .  S
C3518      C3519   1.418       .  A
C3518      H3523   1.084       .  S
C3519      C3520   1.407       .  A
C3520      N3521   1.432       .  S
N3521      H3525   1.046       .  S
N3521      H3526   1.045       .  S
N3524      H3527   1.042       .  S
N3524      H3528   1.046       .  S
C3529      C3530   1.414       .  A
C3529      C3534   1.406       .  A
C3529      H3536   1.083       .  S
C3530      C3531   1.394       .  A
C3531      C3532   1.389       .  A
C3531      N3538   1.433       .  S
C3532      C3533   1.416       .  A
C3532      H3537   1.084       .  S
C3533      C3534   1.401       .  A
C3534      N3535   1.432       .  S
N3535      H3539   1.046       .  S
N3535      H3540   1.044       .  S
N3538      H3541   1.043       .  S
N3538      H3542   1.046       .  S
C3543      C3544   1.416       .  A
C3543      C3548   1.397       .  A
C3543      H3550   1.083       .  S
C3544      C3545   1.407       .  A
C3545      C3546   1.410       .  A
C3545      N3552   1.436       .  S
C3546      C3547   1.403       .  A
C3546      H3551   1.066       .  S
C3547      C3548   1.398       .  A
C3548      N3549   1.433       .  S
N3549      H3553   1.044       .  S
N3549      H3554   1.045       .  S
N3552      H3555   1.045       .  S
C3557      C3558   1.403       .  A
C3557      C3562   1.417       .  A
C3557      H3564   1.080       .  S
C3558      C3559   1.405       .  A
C3559      C3560   1.388       .  A
C3559      N3566   1.432       .  S
C3560      C3561   1.402       .  A
C3560      H3565   1.080       .  S
C3561      C3562   1.410       .  A
C3562      N3563   1.432       .  S
N3563      H3567   1.043       .  S
N3563      H3568   1.045       .  S
N3566      H3569   1.045       .  S
N3566      H3570   1.046       .  S
O3571      C3579   1.280       .  A
O3571     Co3591   2.009       .  S
O3572      C3580   1.284       .  A
O3572     Co3592   2.011   1_556  S
O3573      C3581   1.270       .  A
O3573     Co3593   2.001       .  S
O3574      C3582   1.270       .  A
O3574     Co3594   1.985       .  S
O3575      C3581   1.278       .  A
O3576      C3582   1.279       .  A
O3577      C3580   1.271       .  A
O3577     Co3594   2.002       .  S
O3578      C3579   1.269       .  A
O3578     Co3593   1.982       .  S
C3579      C4071   1.480       .  S
C3580      C4026   1.491       .  S
C3581      C4040   1.474       .  S
C3582      C4054   1.486       .  S
O3583      C3596   1.267       .  A
O3584      C3597   1.271       .  A
O3585      C3598   1.287       .  A
O3585     Co3593   2.033       .  S
O3586      C3599   1.287       .  A
O3586     Co3594   2.019       .  S
O3587      C3599   1.262       .  A
O3587     Co3592   1.973   1_556  S
O3588      C3598   1.272       .  A
O3588     Co3591   1.993       .  S
O3589      C3596   1.287       .  A
O3589     Co3594   2.015       .  S
O3590      C3597   1.284       .  A
O3590     Co3593   2.010       .  S
Co3591     O3595   2.092       .  S
Co3593     O3595   2.105       .  S
C3596      C3987   1.480       .  S
C3597      C3998   1.482       .  S
C3598      C4012   1.508       .  S
C3599      C3970   1.488       .  S
O3600      C3608   1.267       .  A
O3600     Co3620   1.966       .  S
O3601      C3609   1.298       .  A
O3601     Co3621   2.085       .  S
O3602      C3610   1.287       .  A
O3603      C3611   1.281       .  A
O3604      C3610   1.269       .  A
O3604     Co3621   1.960       .  S
O3605      C3611   1.264       .  A
O3605     Co3620   1.970       .  S
O3606      C3609   1.285       .  A
O3606     Co3623   1.912       .  S
O3607      C3608   1.286       .  A
O3607     Co3622   2.012       .  S
C3608      C3956   1.476       .  S
C3609      C3914   1.467       .  S
C3610      C3942   1.471       .  S
C3611      C3931   1.469       .  S
O3612      C3625   1.272       .  A
O3612     Co3620   1.936       .  S
O3613      C3626   1.279       .  A
O3613     Co3621   1.976       .  S
O3614      C3627   1.270       .  A
O3614     Co3622   1.965       .  S
O3615      C3628   1.295       .  A
O3615     Co3623   2.070       .  S
O3616      C3628   1.275       .  A
O3616     Co3621   2.002       .  S
O3617      C3627   1.277       .  A
O3617     Co3620   1.990       .  S
O3618      C3625   1.311       .  A
O3619      C3626   1.274       .  A
Co3620     O3624   1.997       .  S
Co3622     O3624   2.004       .  S
C3625      C3861   1.465       .  S
C3626      C3900   1.472       .  S
C3627      C3872   1.481       .  S
C3628      C3886   1.479       .  S
O3629      C3637   1.285       .  A
O3629     Co3649   1.884       .  S
O3630      C3638   1.277       .  A
O3630     Co3650   1.972       .  S
O3631      C3639   1.275       .  A
O3632      C3640   1.300       .  A
O3632     Co3652   2.053       .  S
O3633      C3639   1.271       .  A
O3633     Co3650   1.964       .  S
O3634      C3640   1.287       .  A
O3634     Co3649   2.029       .  S
O3635      C3638   1.312       .  A
O3636      C3637   1.301       .  A
O3636     Co3651   2.090       .  S
C3637      C3844   1.489       .  S
C3638      C3805   1.477       .  S
C3639      C3819   1.468       .  S
C3640      C3830   1.505       .  S
O3641      C3654   1.286       .  A
O3641     Co3649   2.041       .  S
O3642      C3655   1.273       .  A
O3642     Co3650   1.989       .  S
O3643      C3656   1.275       .  A
O3643     Co3651   2.001       .  S
O3644      C3657   1.275       .  A
O3645      C3657   1.261       .  A
O3645     Co3650   1.934       .  S
O3646      C3656   1.284       .  A
O3646     Co3649   2.053       .  S
O3647      C3654   1.272       .  A
O3647     Co3652   2.008       .  S
O3648      C3655   1.283       .  A
Co3649     O3653   1.864       .  S
Co3651     O3653   2.061       .  S
Co3652     O3653   2.018       .  S
C3654      C3875   1.471       .  S
C3655      C4001   1.475       .  S
C3656      C4015   1.487       .  S
C3657      C3858   1.461       .  S
O3658      C3666   1.274       .  A
O3658     Co3678   2.009       .  S
O3659      C3667   1.267       .  A
O3660      C3668   1.278       .  A
O3660     Co3680   1.999       .  S
O3661      C3669   1.292       .  A
O3661     Co3681   2.021       .  S
O3662      C3668   1.271       .  A
O3662     Co3679   1.974       .  S
O3663      C3669   1.264       .  A
O3664      C3667   1.285       .  A
O3664     Co3681   2.015       .  S
O3665      C3666   1.272       .  A
O3665     Co3680   1.989       .  S
C3666      C3788   1.476       .  S
C3667      C3746   1.498       .  S
C3668      C3774   1.470       .  S
C3669      C3760   1.488       .  S
O3670      C3683   1.289       .  A
O3671      C3684   1.286       .  A
O3671     Co3679   2.024       .  S
O3672      C3685   1.273       .  A
O3672     Co3680   2.004       .  S
O3673      C3686   1.276       .  A
O3673     Co3681   2.017       .  S
O3674      C3686   1.283       .  A
O3675      C3685   1.282       .  A
O3675     Co3678   1.997       .  S
O3676      C3683   1.260       .  A
O3676     Co3681   1.964       .  S
O3677      C3684   1.261       .  A
O3677     Co3680   1.981       .  S
Co3678     O3682   2.098       .  S
Co3679     O3682   2.099       .  S
Co3680     O3682   2.099       .  S
C3683      C3973   1.494       .  S
C3684      C3903   1.497       .  S
C3685      C3984   1.488       .  S
C3686      C3889   1.487       .  S
O3687      C3695   1.275       .  A
O3687     Co3707   1.998       .  S
O3688      C3696   1.278       .  A
O3688     Co3708   2.005       .  S
O3689      C3697   1.268       .  A
O3690      C3698   1.277       .  A
O3691      C3697   1.280       .  A
O3691     Co3708   1.991       .  S
O3692      C3698   1.273       .  A
O3692     Co3707   1.983       .  S
O3693      C3696   1.261       .  A
O3693     Co3710   1.966       .  S
O3694      C3695   1.269       .  A
O3694     Co3709   1.995       .  S
C3695      C4068   1.472       .  S
C3696      C3945   1.483       .  S
C3697      C3959   1.479       .  S
C3698      C4057   1.473       .  S
O3699      C3712   1.269       .  A
O3699     Co3707   2.004       .  S
O3700      C3713   1.268       .  A
O3700     Co3708   1.991       .  S
O3701      C3714   1.283       .  A
O3701     Co3709   2.002       .  S
O3702      C3715   1.277       .  A
O3702     Co3710   1.993       .  S
O3703      C3715   1.271       .  A
O3703     Co3708   1.994       .  S
O3704      C3714   1.268       .  A
O3704     Co3707   1.987       .  S
O3705      C3712   1.272       .  A
O3706      C3713   1.281       .  A
Co3708     O3711   2.093       .  S
Co3710     O3711   2.090       .  S
C3712      C3791   1.482       .  S
C3713      C3833   1.486       .  S
C3714      C3847   1.484       .  S
C3715      C3777   1.465       .  S
O3716      C3724   1.268       .  A
O3716     Co3736   1.974       .  S
O3717      C3725   1.274       .  A
O3718      C3726   1.279       .  A
O3718     Co3738   2.006       .  S
O3719      C3727   1.268       .  A
O3719     Co3739   1.982       .  S
O3720      C3726   1.266       .  A
O3720     Co3737   1.991       .  S
O3721      C3727   1.268       .  A
O3722      C3725   1.276       .  A
O3722     Co3739   1.988       .  S
O3723      C3724   1.285       .  A
O3723     Co3738   2.008       .  S
C3724      C4043   1.483       .  S
C3725      C3917   1.465       .  S
C3726      C4029   1.493       .  S
C3727      C3928   1.468       .  S
O3728      C3741   1.275       .  A
O3729      C3742   1.285       .  A
O3729     Co3737   1.998       .  S
O3730      C3743   1.264       .  A
O3730     Co3738   1.992       .  S
O3731      C3744   1.260       .  A
O3731     Co3739   1.979       .  S
O3732      C3744   1.280       .  A
O3733      C3743   1.278       .  A
O3733     Co3736   1.998       .  S
O3734      C3741   1.276       .  A
O3734     Co3739   2.025       .  S
O3735      C3742   1.273       .  A
O3735     Co3738   2.007       .  S
Co3736     O3740   2.099       .  S
Co3737     O3740   2.097       .  S
Co3738     O3740   2.106       .  S
C3741      C3802   1.474       .  S
C3742      C3763   1.489       .  S
C3743      C3816   1.487       .  S
C3744      C3749   1.485       .  S
C3745      C3746   1.399       .  A
C3745      C3750   1.409       .  A
C3745      H3752   1.084       .  S
C3746      C3747   1.430       .  A
C3747      C3748   1.402       .  A
C3747      N3754   1.432       .  S
C3748      C3749   1.388       .  A
C3748      H3753   1.084       .  S
C3749      C3750   1.422       .  A
C3750      N3751   1.434       .  S
N3751      H3755   1.045       .  S
N3751      H3756   1.046       .  S
N3754      H3757   1.043       .  S
N3754      H3758   1.043       .  S
C3759      C3760   1.394       .  A
C3759      C3764   1.403       .  A
C3759      H3766   1.084       .  S
C3760      C3761   1.436       .  A
C3761      C3762   1.398       .  A
C3761      N3768   1.435       .  S
C3762      C3763   1.393       .  A
C3762      H3767   1.084       .  S
C3763      C3764   1.424       .  A
C3764      N3765   1.432       .  S
N3765      H3769   1.045       .  S
N3765      H3770   1.042       .  S
N3768      H3771   1.038   1_565  S
C3773      C3774   1.399       .  A
C3773      C3778   1.377       .  A
C3773      H3780   1.083       .  S
C3774      C3775   1.405       .  A
C3775      C3776   1.413       .  A
C3775      N3782   1.423       .  S
C3776      C3777   1.403       .  A
C3776      H3781   1.082       .  S
C3777      C3778   1.411       .  A
C3778      N3779   1.430       .  S
N3779      H3783   1.041       .  S
N3779      H3784   1.045       .  S
N3782      H3785   1.043       .  S
N3782      H3786   1.043       .  S
C3787      C3788   1.406       .  A
C3787      C3792   1.418       .  A
C3787      H3794   1.083       .  S
C3788      C3789   1.407       .  A
C3789      C3790   1.392       .  A
C3789      N3796   1.433       .  S
C3790      C3791   1.402       .  A
C3790      H3795   1.082       .  S
C3791      C3792   1.412       .  A
C3792      N3793   1.434       .  S
N3793      H3797   1.045       .  S
N3793      H3798   1.043       .  S
N3796      H3799   1.046       .  S
N3796      H3800   1.046       .  S
C3801      C3802   1.400       .  A
C3801      C3806   1.405       .  A
C3801      H3808   1.078       .  S
C3802      C3803   1.409       .  A
C3803      C3804   1.406       .  A
C3803      N3810   1.433       .  S
C3804      C3805   1.404       .  A
C3804      H3809   1.084       .  S
C3805      C3806   1.405       .  A
C3806      N3807   1.431       .  S
N3807      H3811   1.045   1_565  S
N3807      H3812   1.041       .  S
N3810      H3813   1.045       .  S
N3810      H3814   1.044       .  S
C3815      C3816   1.414       .  A
C3815      C3820   1.403       .  A
C3815      H3822   1.084       .  S
C3816      C3817   1.400       .  A
C3817      C3818   1.405       .  A
C3817      N3824   1.424       .  S
C3818      C3819   1.403       .  A
C3818      H3823   1.084       .  S
C3819      C3820   1.405       .  A
C3820      N3821   1.434       .  S
N3821      H3825   1.046       .  S
N3821      H3826   1.043       .  S
N3824      H3827   1.044       .  S
N3824      H3828   1.042       .  S
C3829      C3830   1.419       .  A
C3829      C3834   1.408       .  A
C3829      H3836   1.079       .  S
C3830      C3831   1.415       .  A
C3831      C3832   1.400       .  A
C3831      N3838   1.432       .  S
C3832      C3833   1.410       .  A
C3832      H3837   1.084       .  S
C3833      C3834   1.399       .  A
C3834      N3835   1.432       .  S
N3835      H3839   1.046       .  S
N3835      H3840   1.044       .  S
N3838      H3841   1.045       .  S
N3838      H3842   1.045       .  S
C3843      C3844   1.398       .  A
C3843      C3848   1.398       .  A
C3843      H3850   1.084       .  S
C3844      C3845   1.423       .  A
C3845      C3846   1.406       .  A
C3845      N3852   1.433       .  S
C3846      C3847   1.396       .  A
C3846      H3851   1.084       .  S
C3847      C3848   1.422       .  A
C3848      N3849   1.434       .  S
N3849      H3853   1.046       .  S
N3849      H3854   1.045       .  S
N3852      H3855   1.045       .  S
N3852      H3856   1.044       .  S
C3857      C3858   1.405       .  A
C3857      C3862   1.393       .  A
C3857      H3864   1.084       .  S
C3858      C3859   1.404       .  A
C3859      C3860   1.392       .  A
C3859      N3866   1.433       .  S
C3860      C3861   1.407       .  A
C3860      H3865   1.083       .  S
C3861      C3862   1.406       .  A
C3862      N3863   1.433       .  S
N3863      H3867   1.045       .  S
N3863      H3868   1.046       .  S
N3866      H3869   1.046       .  S
N3866      H3870   1.046       .  S
C3871      C3872   1.410       .  A
C3871      C3876   1.385       .  A
C3871      H3878   1.084       .  S
C3872      C3873   1.407       .  A
C3873      C3874   1.412       .  A
C3873      N3880   1.436       .  S
C3874      C3875   1.410       .  A
C3874      H3879   1.083       .  S
C3875      C3876   1.401       .  A
C3876      N3877   1.434       .  S
N3877      H3881   1.046       .  S
N3877      H3882   1.046       .  S
N3880      H3883   1.045       .  S
N3880      H3884   1.046       .  S
C3885      C3886   1.401       .  A
C3885      C3890   1.401       .  A
C3885      H3892   1.084       .  S
C3886      C3887   1.404       .  A
C3887      C3888   1.409       .  A
C3887      N3894   1.426       .  S
C3888      C3889   1.403       .  A
C3888      H3893   1.071       .  S
C3889      C3890   1.408       .  A
C3890      N3891   1.427       .  S
N3891      H3895   1.046       .  S
N3891      H3896   1.046       .  S
N3894      H3897   1.041       .  S
N3894      H3898   1.042       .  S
C3899      C3900   1.389       .  A
C3899      C3904   1.398       .  A
C3899      H3906   1.085       .  S
C3900      C3901   1.412       .  A
C3901      C3902   1.407       .  A
C3901      N3908   1.427   1_556  S
C3902      C3903   1.399       .  A
C3902      H3907   1.083       .  S
C3903      C3904   1.434       .  A
C3904      N3905   1.435       .  S
N3905      H3909   1.046       .  S
N3905      H3910   1.046       .  S
N3908      H3911   1.045       .  S
C3913      C3914   1.403       .  A
C3913      C3918   1.402       .  A
C3913      H3920   1.084       .  S
C3914      C3915   1.409       .  A
C3915      C3916   1.399       .  A
C3915      N3922   1.430       .  S
C3916      C3917   1.398       .  A
C3916      H3921   1.077       .  S
C3917      C3918   1.407       .  A
C3918      N3919   1.432       .  S
N3919      H3923   1.046       .  S
N3919      H3924   1.045       .  S
N3922      H3925   1.042       .  S
N3922      H3926   1.043       .  S
C3927      C3928   1.400       .  A
C3927      C3932   1.401       .  A
C3927      H3934   1.073       .  S
C3928      C3929   1.403       .  A
C3929      C3930   1.397       .  A
C3929      N3936   1.433       .  S
C3930      C3931   1.410       .  A
C3930      H3935   1.085       .  S
C3931      C3932   1.407       .  A
C3932      N3933   1.431       .  S
N3933      H3937   1.045       .  S
N3933      H3938   1.043       .  S
N3936      H3939   1.046       .  S
N3936      H3940   1.044       .  S
C3941      C3942   1.414       .  A
C3941      C3946   1.405       .  A
C3941      H3948   1.081       .  S
C3942      C3943   1.396       .  A
C3943      C3944   1.395       .  A
C3943      N3950   1.433       .  S
C3944      C3945   1.419       .  A
C3944      H3949   1.083       .  S
C3945      C3946   1.401       .  A
C3946      N3947   1.431       .  S
N3947      H3951   1.044       .  S
N3947      H3952   1.046       .  S
N3950      H3953   1.045       .  S
N3950      H3954   1.046       .  S
C3955      C3956   1.395       .  A
C3955      C3960   1.401       .  A
C3955      H3962   1.084       .  S
C3956      C3957   1.422       .  A
C3957      C3958   1.399       .  A
C3957      N3964   1.432       .  S
C3958      C3959   1.393       .  A
C3958      H3963   1.084       .  S
C3959      C3960   1.423       .  A
C3960      N3961   1.434       .  S
N3961      H3965   1.045   1_655  S
N3961      H3966   1.046       .  S
N3964      H3967   1.042       .  S
N3964      H3968   1.046       .  S
C3969      C3970   1.421       .  A
C3969      C3974   1.406       .  A
C3969      H3976   1.084       .  S
C3970      C3971   1.403       .  A
C3971      C3972   1.398       .  A
C3971      N3978   1.434       .  S
C3972      C3973   1.423       .  A
C3972      H3977   1.084       .  S
C3973      C3974   1.405       .  A
C3974      N3975   1.433       .  S
N3975      H3979   1.046       .  S
N3975      H3980   1.044       .  S
N3978      H3981   1.046       .  S
N3978      H3982   1.043       .  S
C3983      C3984   1.416       .  A
C3983      C3988   1.404       .  A
C3983      H3990   1.078       .  S
C3984      C3985   1.406       .  A
C3985      C3986   1.397       .  A
C3985      N3992   1.432       .  S
C3986      C3987   1.415       .  A
C3986      H3991   1.082       .  S
C3987      C3988   1.396       .  A
C3988      N3989   1.432       .  S
N3989      H3993   1.046       .  S
N3989      H3994   1.044       .  S
N3992      H3995   1.045       .  S
N3992      H3996   1.045       .  S
C3997      C3998   1.400       .  A
C3997      C4002   1.413       .  A
C3997      H4004   1.071       .  S
C3998      C3999   1.416       .  A
C3999      C4000   1.392       .  A
C3999      N4006   1.432       .  S
C4000      C4001   1.397       .  A
C4000      H4005   1.082       .  S
C4001      C4002   1.411       .  A
C4002      N4003   1.433       .  S
N4003      H4007   1.041       .  S
N4003      H4008   1.043       .  S
N4006      H4009   1.045       .  S
N4006      H4010   1.042       .  S
C4011      C4012   1.414       .  A
C4011      C4016   1.396       .  A
C4011      H4018   1.084       .  S
C4012      C4013   1.419       .  A
C4013      C4014   1.422       .  A
C4013      N4020   1.432       .  S
C4014      C4015   1.412       .  A
C4014      H4019   1.081       .  S
C4015      C4016   1.400       .  A
C4016      N4017   1.433       .  S
N4017      H4021   1.046       .  S
N4017      H4022   1.046       .  S
N4020      H4023   1.041       .  S
N4020      H4024   1.039       .  S
C4025      C4026   1.414       .  A
C4025      C4030   1.401       .  A
C4025      H4032   1.082       .  S
C4026      C4027   1.404       .  A
C4027      C4028   1.411       .  A
C4027      N4034   1.437       .  S
C4028      C4029   1.416       .  A
C4028      H4033   1.084       .  S
C4029      C4030   1.408       .  A
C4030      N4031   1.432       .  S
N4031      H4035   1.045       .  S
N4031      H4036   1.045       .  S
N4034      H4037   1.046       .  S
N4034      H4038   1.046       .  S
C4039      C4040   1.414       .  A
C4039      C4044   1.409       .  A
C4039      H4046   1.083       .  S
C4040      C4041   1.397       .  A
C4041      C4042   1.393       .  A
C4041      N4048   1.434       .  S
C4042      C4043   1.416       .  A
C4042      H4047   1.084       .  S
C4043      C4044   1.402       .  A
C4044      N4045   1.431       .  S
N4045      H4049   1.045       .  S
N4045      H4050   1.044       .  S
N4048      H4051   1.045       .  S
N4048      H4052   1.046       .  S
C4053      C4054   1.413       .  A
C4053      C4058   1.394       .  A
C4053      H4060   1.083       .  S
C4054      C4055   1.411       .  A
C4055      C4056   1.406       .  A
C4055      N4062   1.431       .  S
C4056      C4057   1.406       .  A
C4056      H4061   1.072       .  S
C4057      C4058   1.400       .  A
C4058      N4059   1.438       .  S
N4059      H4063   1.046       .  S
N4059      H4064   1.045       .  S
N4062      H4065   1.044       .  S
C4067      C4068   1.403       .  A
C4067      C4072   1.418       .  A
C4067      H4074   1.079       .  S
C4068      C4069   1.404       .  A
C4069      C4070   1.389       .  A
C4069      N4076   1.432       .  S
C4070      C4071   1.404       .  A
C4070      H4075   1.085       .  S
C4071      C4072   1.408       .  A
C4072      N4073   1.432       .  S
N4073      H4077   1.043       .  S
N4073      H4078   1.045       .  S
N4076      H4079   1.046       .  S
N4076      H4080   1.046       .  S
