geometry optimzed in LAMMPS
_audit_creation_date              2020-11-30 
_audit_creation_method            'lammps2cif' 
_symmetry_space_group_name_H-M    'P1' 
_symmetry_Int_Tables_number       1 
_symmetry_cell_setting            triclinic 
loop_ 
_symmetry_equiv_pos_as_xyz 
  x,y,z 
_cell_length_a                    33.16093864 
_cell_length_b                    33.20313514656267 
_cell_length_c                    40.372084654587105 
_cell_angle_alpha                 89.94665771504049 
_cell_angle_beta                  89.91656428061722 
_cell_angle_gamma                 89.91784045696326 
loop_ 
_atom_site_label 
_atom_site_type_symbol 
_atom_site_fract_x 
_atom_site_fract_y 
_atom_site_fract_z 
_atom_site_charge 
C1          C  0.92377342  0.00269780  0.78646269     0.81200
N2          N  0.90293719  0.96711499  0.78635879    -0.77100
C3          C  0.86178841  0.96740259  0.78658969     0.83600
N4          N  0.84230494  0.00309610  0.78675859    -0.77100
C5          C  0.86219591  0.03855289  0.78678193     0.83700
N6          N  0.90325429  0.03842345  0.78663461    -0.78800
In7        In  0.25350686  0.17327428  0.77833250     1.36900
C8          C  0.23993773  0.20949078  0.83598290     0.78500
O9          O  0.18953370  0.14831063  0.77955911    -0.59900
O10         O  0.23886909  0.10817061  0.78523833    -0.50800
C11         C  0.24580374  0.20107793  0.71693231     0.71200
O12         O  0.24707493  0.22412830  0.74177988    -0.45700
C13         C  0.33337363  0.16374919  0.77671268     0.75900
O14         O  0.22038619  0.21841594  0.81018136    -0.57600
O15         O  0.30922684  0.13466114  0.77997384    -0.47600
O16         O  0.26703356  0.18347597  0.83173470    -0.54000
C17         C  0.20112153  0.11246443  0.78374675     0.86100
O18         O  0.24631694  0.16409736  0.72385069    -0.55900
O19         O  0.31689039  0.19785907  0.77425551    -0.59200
C20         C  0.52101463  0.88455262  0.78114618     0.81200
N21         N  0.52041112  0.92477002  0.77537665    -0.77100
C22         C  0.48490648  0.94456505  0.77250925     0.83600
N23         N  0.44976773  0.92424331  0.77564062    -0.77100
C24         C  0.44993987  0.88399473  0.78136529     0.83700
N25         N  0.48567494  0.86390991  0.78424559    -0.78800
C26         C  0.45007125  0.12789751  0.77378458     0.81200
N27         N  0.48573567  0.14798845  0.77716495    -0.77100
C28         C  0.52113308  0.12692275  0.77660881     0.83600
N29         N  0.52058646  0.08635015  0.77290363    -0.77100
C30         C  0.48518076  0.06660526  0.76953062     0.83700
N31         N  0.45005233  0.08732451  0.77011539    -0.78800
In32       In  0.25422144  0.83634650  0.78660292     1.36900
C33         C  0.23764555  0.80255530  0.84455901     0.78500
O34         O  0.31816436  0.81240741  0.78630170    -0.59900
O35         O  0.30923242  0.87574802  0.78757391    -0.50800
C36         C  0.24756306  0.80353607  0.72689988     0.71200
O37         O  0.25045078  0.78257050  0.75285013    -0.45700
C38         C  0.20219762  0.89768840  0.78804530     0.75900
O39         O  0.22056729  0.79167456  0.81815120    -0.57600
O40         O  0.23995320  0.90201992  0.78813467    -0.47600
O41         O  0.26335765  0.83006719  0.84101044    -0.54000
C42         C  0.33395167  0.84689209  0.78689323     0.86100
O43         O  0.24638393  0.84094211  0.73180636    -0.55900
O44         O  0.19046627  0.86157810  0.78727431    -0.59200
In45       In  0.71670956  0.83576113  0.78754169     1.36900
C46         C  0.73568607  0.79946421  0.84464566     0.78500
O47         O  0.78023384  0.86097931  0.78424309    -0.59900
O48         O  0.73157955  0.90123355  0.79282907    -0.50800
C49         C  0.71900860  0.80548123  0.72641671     0.71200
O50         O  0.71709364  0.78340117  0.75184504    -0.45700
C51         C  0.63732711  0.84784408  0.78817861     0.75900
O52         O  0.75449215  0.79277465  0.81802612    -0.57600
O53         O  0.66241628  0.87617495  0.79104766    -0.47600
O54         O  0.70652880  0.82348270  0.84167513    -0.54000
C55         C  0.76909742  0.89685809  0.78889980     0.86100
O56         O  0.72195718  0.84253370  0.73250343    -0.55900
O57         O  0.65261104  0.81319164  0.78579243    -0.59200
In58       In  0.71793404  0.16955069  0.78531315     1.36900
C59         C  0.73668933  0.20003429  0.84415546     0.78500
O60         O  0.65464384  0.19497072  0.78583822    -0.59900
O61         O  0.66203844  0.13136103  0.78463096    -0.50800
C62         C  0.72357146  0.20032048  0.72486481     0.71200
O63         O  0.72156046  0.22212868  0.75044109    -0.45700
C64         C  0.77024080  0.10921489  0.78673482     0.75900
O65         O  0.75270482  0.21261970  0.81770196    -0.57600
O66         O  0.73255934  0.10439847  0.78844504    -0.47600
O67         O  0.71001769  0.17356242  0.84007228    -0.54000
C68         C  0.63801675  0.16086774  0.78470785     0.86100
O69         O  0.72522399  0.16306978  0.73053979    -0.55900
O70         O  0.78165809  0.14528862  0.78400457    -0.59200
C71         C  0.04815230  0.00414856  0.78702300     0.81200
N72         N  0.06845925  0.03998188  0.78606878    -0.77100
C73         C  0.10959909  0.04033507  0.78623219     0.83600
N74         N  0.12971203  0.00489216  0.78719653    -0.77100
C75         C  0.11026825  0.96913761  0.78805030     0.83700
N76         N  0.06919597  0.96875988  0.78795997    -0.78800
C77         C  0.99217789  0.43688911  0.02703953     0.81200
N78         N  0.02777512  0.41608977  0.02798745    -0.77100
C79         C  0.02750417  0.37509895  0.02926038     0.83600
N80         N  0.99182529  0.35561826  0.02946972    -0.77100
C81         C  0.95626584  0.37538905  0.02854146     0.83700
N82         N  0.95635812  0.41643637  0.02728874    -0.78800
C83         C  0.86931482  0.96164231  0.03556675     0.81200
N84         N  0.84871231  0.99729323  0.03660521    -0.77100
C85         C  0.86960551  0.03272712  0.03625274     0.83600
N86         N  0.91039944  0.03224940  0.03480458    -0.77100
C87         C  0.93063521  0.99692972  0.03379060     0.83700
N88         N  0.91017087  0.96172282  0.03416427    -0.78800
C89         C  0.11354055  0.03416006  0.02359320     0.81200
N90         N  0.13464426  0.99883301  0.02426534    -0.77100
C91         C  0.11426102  0.96324661  0.02651040     0.83600
N92         N  0.07349169  0.96321839  0.02825258    -0.77100
C93         C  0.05275605  0.99824329  0.02762428     0.83700
N94         N  0.07270904  0.03363780  0.02534457    -0.78800
In95       In  0.82576719  0.22968235  0.03600422     1.36900
C96         C  0.79278690  0.24914509  0.09414016     0.78500
O97         O  0.80109114  0.16630187  0.03582428    -0.59900
O98         O  0.86459725  0.17404744  0.03895649    -0.50800
C99         C  0.79402781  0.23196434  0.97569013     0.71200
O100        O  0.77254513  0.23138829  0.00155453    -0.45700
C101        C  0.88583923  0.28301579  0.03434238     0.75900
O102        O  0.78208554  0.26549659  0.06732046    -0.57600
O103        O  0.89096105  0.24578977  0.03913657    -0.47600
O104        O  0.81940391  0.22237844  0.09094987    -0.54000
C105        C  0.83529261  0.14986590  0.03757788     0.86100
O106        O  0.83144031  0.23322709  0.98089502    -0.55900
O107        O  0.84959979  0.29350554  0.03037143    -0.59200
In108      In  0.15798845  0.23034602  0.02832931     1.36900
C109        C  0.19005456  0.24685571  0.08685666     0.78500
O110        O  0.13335555  0.29380629  0.02709167    -0.59900
O111        O  0.09289664  0.24515113  0.03519321    -0.50800
C112        C  0.18944951  0.23964212  0.96849738     0.71200
O113        O  0.21120130  0.23569314  0.99395516    -0.45700
C114        C  0.14860223  0.15081716  0.02492677     0.75900
O115        O  0.20079413  0.26469836  0.06069583    -0.57600
O116        O  0.11935653  0.17512771  0.02370692    -0.47600
O117        O  0.16439971  0.21941988  0.08267608    -0.54000
C118        C  0.09753552  0.28269365  0.03210337     0.86100
O119        O  0.15211486  0.24046336  0.97410917    -0.55900
O120        O  0.18276080  0.16695780  0.02815799    -0.59200
In121      In  0.15812492  0.76752358  0.03625634     1.36900
C122        C  0.19167105  0.75245204  0.09489746     0.78500
O123        O  0.18306413  0.83019897  0.03062287    -0.59900
O124        O  0.11974157  0.82331692  0.03741033    -0.50800
C125        C  0.18800430  0.76165826  0.97577283     0.71200
O126        O  0.21031972  0.76319884  0.00109406    -0.45700
C127        C  0.09773593  0.71500219  0.03783817     0.75900
O128        O  0.20071245  0.73266440  0.06925012    -0.57600
O129        O  0.09291654  0.75244854  0.04157457    -0.47600
O130        O  0.16702811  0.78066045  0.09001429    -0.54000
C131        C  0.14905393  0.84695810  0.03286016     0.86100
O132        O  0.15075406  0.76034146  0.98177409    -0.55900
O133        O  0.13377445  0.70400727  0.03352375    -0.59200
In134      In  0.82358178  0.76529471  0.03554034     1.36900
C135        C  0.79075818  0.74764326  0.09392209     0.78500
O136        O  0.84947701  0.70223969  0.03199858    -0.59900
O137        O  0.88856011  0.75063863  0.04406730    -0.50800
C138        C  0.79176931  0.76015474  0.97511145     0.71200
O139        O  0.77023343  0.76108728  0.00094493    -0.45700
C140        C  0.83333309  0.84502687  0.03523010     0.75900
O141        O  0.78169368  0.72881584  0.06782273    -0.57600
O142        O  0.86235585  0.82066616  0.03210531    -0.47600
O143        O  0.81520237  0.77613315  0.08972384    -0.54000
C144        C  0.88478879  0.71335068  0.03897000     0.86100
O145        O  0.82914736  0.75962453  0.98053973    -0.55900
O146        O  0.79917681  0.82881042  0.03842181    -0.59200
C147        C  0.99256404  0.56094225  0.02935053     0.81200
N148        N  0.02810842  0.58177594  0.03013412    -0.77100
C149        C  0.02770399  0.62270077  0.03281265     0.83600
N150        N  0.99193201  0.64205940  0.03458751    -0.77100
C151        C  0.95648494  0.62216072  0.03379237     0.83700
N152        N  0.95673916  0.58126807  0.03107084    -0.78800
C153        C  0.48565763  0.06639114  0.53168189     0.81200
N154        N  0.52149342  0.08677572  0.53344337    -0.77100
C155        C  0.52165563  0.12789758  0.53302961     0.83600
N156        N  0.48620044  0.14772347  0.53070271    -0.77100
C157        C  0.45058614  0.12821926  0.52894368     0.83700
N158        N  0.45026389  0.08726541  0.52946641    -0.78800
In159      In  0.31784948  0.27091347  0.52804561     1.36900
C160        C  0.28135253  0.25200555  0.58484360     0.78500
O161        O  0.34379002  0.20809384  0.52378338    -0.59900
O162        O  0.38323086  0.25697872  0.53366966    -0.50800
C163        C  0.28798935  0.26756751  0.46740258     0.71200
O164        O  0.26559715  0.26773204  0.49271820    -0.45700
C165        C  0.33015191  0.34986122  0.53056125     0.75900
O166        O  0.27759041  0.23090404  0.55909613    -0.57600
O167        O  0.35847391  0.32456133  0.53288475    -0.47600
O168        O  0.30254460  0.28301056  0.58103889    -0.54000
C169        C  0.37943384  0.21968825  0.52877144     0.86100
O170        O  0.32518013  0.26787403  0.47340976    -0.55900
O171        O  0.29548838  0.33495559  0.52682960    -0.59200
C172        C  0.36611452  0.46630065  0.53579676     0.81200
N173        N  0.40692513  0.46740566  0.53702089    -0.77100
C174        C  0.42636865  0.50311293  0.53837539     0.83600
N175        N  0.40520273  0.53787297  0.53848646    -0.77100
C176        C  0.36443020  0.53722922  0.53732240     0.83700
N177        N  0.34453039  0.50133218  0.53591218    -0.78800
C178        C  0.60906227  0.54207954  0.53701187     0.81200
N179        N  0.63030508  0.50685188  0.53845843    -0.77100
C180        C  0.60997512  0.47117451  0.54018684     0.83600
N181        N  0.56916314  0.47100129  0.54041579    -0.77100
C182        C  0.54837437  0.50594838  0.53899346     0.83700
N183        N  0.56822585  0.54138759  0.53726551    -0.78800
In184      In  0.65156258  0.27452537  0.53704178     1.36900
C185        C  0.68577838  0.25556262  0.59433339     0.78500
O186        O  0.67760765  0.33729740  0.53796583    -0.59900
O187        O  0.61390244  0.33079047  0.54099049    -0.50800
C188        C  0.68147562  0.27097773  0.47604313     0.71200
O189        O  0.70361829  0.26987074  0.50144568    -0.45700
C190        C  0.59163378  0.22080194  0.53782726     0.75900
O191        O  0.69651422  0.23950179  0.56739978    -0.57600
O192        O  0.58628162  0.25829539  0.54058562    -0.47600
O193        O  0.65860183  0.28184489  0.59158609    -0.54000
C194        C  0.64374299  0.35435770  0.54014174     0.86100
O195        O  0.64422515  0.27267833  0.48204312    -0.55900
O196        O  0.62797682  0.21029173  0.53467778    -0.59200
In197      In  0.65161946  0.73860604  0.53456782     1.36900
C198        C  0.68331092  0.75460674  0.59370625     0.78500
O199        O  0.62583920  0.80177795  0.53501464    -0.59900
O200        O  0.58575164  0.75187401  0.53542671    -0.50800
C201        C  0.68475561  0.74595357  0.47490493     0.71200
O202        O  0.70556068  0.74283108  0.50093725    -0.45700
C203        C  0.64261818  0.65900006  0.53416581     0.75900
O204        O  0.69413248  0.77288228  0.56775416    -0.57600
O205        O  0.61317115  0.68297019  0.53626921    -0.47600
O206        O  0.65738873  0.72758158  0.58905524    -0.54000
C207        C  0.58981975  0.78962865  0.53553570     0.86100
O208        O  0.64726874  0.74752687  0.47970802    -0.55900
O209        O  0.67668986  0.67554237  0.53207270    -0.59200
In210      In  0.31866774  0.73284542  0.53906394     1.36900
C211        C  0.28296045  0.74857694  0.59643814     0.78500
O212        O  0.29433970  0.66955519  0.53990685    -0.59900
O213        O  0.35792822  0.67757396  0.53768724    -0.50800
C214        C  0.28844768  0.73674270  0.47837659     0.71200
O215        O  0.26644597  0.73614875  0.50392095    -0.45700
C216        C  0.37742505  0.78756044  0.54255934     0.75900
O217        O  0.27213631  0.76517094  0.56974085    -0.57600
O218        O  0.38269919  0.75049067  0.54801396    -0.47600
O219        O  0.31110798  0.72337476  0.59342650    -0.54000
C220        C  0.32863882  0.65333522  0.53851485     0.86100
O221        O  0.32579216  0.73751386  0.48408269    -0.55900
O222        O  0.34174370  0.79713873  0.53514294    -0.59200
C223        C  0.48250174  0.94240885  0.53515681     0.81200
N224        N  0.44673175  0.92186172  0.53649200    -0.77100
C225        C  0.44686336  0.88079394  0.53827744     0.83600
N226        N  0.48254940  0.86114434  0.53836275    -0.77100
C227        C  0.51810221  0.88081080  0.53680177     0.83700
N228        N  0.51811252  0.92172969  0.53526047    -0.78800
C229        C  0.42370244  0.50188677  0.28940200     0.81200
N230        N  0.40300161  0.53752337  0.28950094    -0.77100
C231        C  0.36202279  0.53753575  0.28720632     0.83600
N232        N  0.34243930  0.50201752  0.28489214    -0.77100
C233        C  0.36217839  0.46641934  0.28483904     0.83700
N234        N  0.40318798  0.46628775  0.28709406    -0.78800
C235        C  0.02180341  0.37533153  0.28893512     0.81200
N236        N  0.02196410  0.41593110  0.29235354    -0.77100
C237        C  0.98685556  0.43647607  0.29466501     0.83600
N238        N  0.95139522  0.41660997  0.29338325    -0.77100
C239        C  0.95072472  0.37606358  0.29000912     0.83700
N240        N  0.98603999  0.35506405  0.28764879    -0.78800
C241        C  0.95028149  0.61923668  0.29087523     0.81200
N242        N  0.95069288  0.57850661  0.29313909    -0.77100
C243        C  0.98610333  0.55844036  0.29541947     0.83600
N244        N  0.02127841  0.57893022  0.29527661    -0.77100
C245        C  0.02133746  0.61961957  0.29297699     0.83700
N246        N  0.98572460  0.64008436  0.29073631    -0.78800
In247      In  0.21837721  0.33439972  0.27791165     1.36900
C248        C  0.23653141  0.30196187  0.33575755     0.78500
O249        O  0.28198549  0.35947428  0.27755916    -0.59900
O250        O  0.23248317  0.40001187  0.28047046    -0.50800
C251        C  0.22329821  0.30252021  0.21796790     0.71200
O252        O  0.22241425  0.28114482  0.24380719    -0.45700
C253        C  0.13842909  0.34169227  0.28081632     0.75900
O254        O  0.25371590  0.29102089  0.30932420    -0.57600
O255        O  0.16175554  0.37164617  0.27935174    -0.47600
O256        O  0.20994524  0.32867876  0.33222176    -0.54000
C257        C  0.27026703  0.39553220  0.27967430     0.86100
O258        O  0.22367049  0.33991500  0.22307638    -0.55900
O259        O  0.15576156  0.30790366  0.28046270    -0.59200
In260      In  0.75384908  0.33443710  0.28558641     1.36900
C261        C  0.73620680  0.30116331  0.34377725     0.78500
O262        O  0.81684012  0.30915921  0.28747897    -0.59900
O263        O  0.80959601  0.37283612  0.28585301    -0.50800
C264        C  0.75143948  0.30376068  0.22479715     0.71200
O265        O  0.75052406  0.28185516  0.25037753    -0.45700
C266        C  0.70162267  0.39556752  0.28767715     0.75900
O267        O  0.71851477  0.29095847  0.31740111    -0.57600
O268        O  0.73920356  0.39971796  0.29093438    -0.47600
O269        O  0.76352223  0.32701505  0.33993616    -0.54000
C270        C  0.83350081  0.34323200  0.28688001     0.86100
O271        O  0.75088205  0.34101399  0.23054549    -0.55900
O272        O  0.69018499  0.35976739  0.28314910    -0.59200
In273      In  0.75468999  0.66961637  0.28774560     1.36900
C274        C  0.73885194  0.70715071  0.34458527     0.78500
O275        O  0.69036928  0.64565407  0.28731107    -0.59900
O276        O  0.73915177  0.60454167  0.29173245    -0.50800
C277        C  0.75194404  0.69785663  0.22632493     0.71200
O278        O  0.75334575  0.72080370  0.25122283    -0.45700
C279        C  0.83403503  0.65703695  0.28838900     0.75900
O280        O  0.72068205  0.71583641  0.31806694    -0.57600
O281        O  0.80876018  0.62934648  0.29349675    -0.47600
O282        O  0.76548330  0.68039710  0.34152714    -0.54000
C283        C  0.70151165  0.60944787  0.29003486     0.86100
O284        O  0.74924079  0.66096198  0.23316107    -0.55900
O285        O  0.81896511  0.69134627  0.28330789    -0.59200
In286      In  0.21702468  0.66879498  0.28817702     1.36900
C287        C  0.23453398  0.70133729  0.34673366     0.78500
O288        O  0.15273436  0.69104204  0.28534497    -0.59900
O289        O  0.16285151  0.62882598  0.29471196    -0.50800
C290        C  0.22264277  0.70087953  0.22787169     0.71200
O291        O  0.21804180  0.72223844  0.25347753    -0.45700
C292        C  0.26976665  0.60831890  0.28641118     0.75900
O293        O  0.25153171  0.71253615  0.32028471    -0.57600
O294        O  0.23215297  0.60360233  0.28394182    -0.47600
O295        O  0.20805378  0.67465920  0.34285174    -0.54000
C296        C  0.13759549  0.65683397  0.29059625     0.86100
O297        O  0.22595446  0.66376687  0.23349801    -0.55900
O298        O  0.28092134  0.64432856  0.29018905    -0.59200
C299        C  0.54787194  0.50248538  0.29132713     0.81200
N300        N  0.56864947  0.46693495  0.29007967    -0.77100
C301        C  0.60971040  0.46707887  0.28905755     0.83600
N302        N  0.62932566  0.50272609  0.28916974    -0.77100
C303        C  0.60946364  0.53828004  0.29040297     0.83700
N304        N  0.56837564  0.53819683  0.29144072    -0.78800
C305        C  0.67408094  0.57455673  0.29083365    -0.15500
C306        C  0.63333363  0.57624658  0.29030611    -0.30700
H307        H  0.68907704  0.54551151  0.29186807     0.13500
H308        H  0.61790387  0.60506764  0.28968388     0.14100
C309        C  0.67444811  0.43072265  0.28896585    -0.15500
C310        C  0.63373082  0.42921459  0.28774081    -0.30700
H311        H  0.68944499  0.45959997  0.29133006     0.13500
H312        H  0.61835129  0.40048632  0.28592341     0.14100
C313        C  0.87686640  0.64970224  0.28839747    -0.12300
C314        C  0.91179382  0.63925342  0.28903259    -0.13900
C315        C  0.09471345  0.64994024  0.29163926    -0.12300
C316        C  0.05971529  0.63981984  0.29231829    -0.13900
C317        C  0.91198430  0.35676917  0.28836723    -0.12300
C318        C  0.87661160  0.34818582  0.28750339    -0.13900
C319        C  0.06009173  0.35519348  0.28573033    -0.12300
C320        C  0.09528538  0.34612962  0.28320959    -0.13900
C321        C  0.98703706  0.47935739  0.29672744    -0.12300
C322        C  0.98650946  0.51550789  0.29688501    -0.13900
C323        C  0.50408424  0.50226708  0.29173202    -0.12300
C324        C  0.46743726  0.50194977  0.29115127    -0.13900
C325        C  0.33790118  0.57532399  0.28771894    -0.15500
C326        C  0.29731576  0.57356667  0.28487897    -0.30700
H327        H  0.35295882  0.60403455  0.29091609     0.13500
H328        H  0.28262444  0.54468231  0.28156493     0.14100
C329        C  0.29746178  0.43053161  0.28121991    -0.15500
C330        C  0.33819705  0.42867551  0.28256599    -0.30700
H331        H  0.28242606  0.45956583  0.28176903     0.13500
H332        H  0.35354510  0.39979716  0.28232068     0.14100
C333        C  0.23394412  0.71699483  0.43933190    -0.12400
C334        C  0.27211422  0.73397924  0.44453581     0.09700
C335        C  0.29612249  0.74406599  0.41706195    -0.12400
C336        C  0.28283110  0.73571475  0.38491558    -0.12400
C337        C  0.24573899  0.71636926  0.37985362     0.09700
C338        C  0.22102606  0.70791896  0.40728656    -0.12400
H339        H  0.21498495  0.70873129  0.46012504     0.13700
H340        H  0.32569321  0.75719229  0.42050440     0.13700
H341        H  0.30247306  0.74243787  0.36417087     0.13700
H342        H  0.19223620  0.69309504  0.40403811     0.13700
C343        C  0.41140912  0.81612687  0.54425702    -0.15500
C344        C  0.40916164  0.85640303  0.53911696    -0.30700
H345        H  0.44042263  0.80233164  0.54938759     0.13500
H346        H  0.38029762  0.87082248  0.53467051     0.14100
C347        C  0.67924105  0.75551213  0.41366626    -0.12400
C348        C  0.70230755  0.74436645  0.44138749     0.09700
C349        C  0.74004475  0.72619092  0.43655992    -0.12400
C350        C  0.75297548  0.71618487  0.40469481    -0.12400
C351        C  0.72865579  0.72473016  0.37708877     0.09700
C352        C  0.69250096  0.74605600  0.38167907    -0.12400
H353        H  0.65005580  0.76968248  0.41681869     0.13700
H354        H  0.75833497  0.71721253  0.45753082     0.13700
H355        H  0.78114557  0.70001601  0.40180559     0.13700
H356        H  0.67327533  0.75309186  0.36078437     0.13700
C357        C  0.55444332  0.81635015  0.53622154    -0.15500
C358        C  0.55599756  0.85699266  0.53627546    -0.30700
H359        H  0.52549891  0.80115859  0.53663960     0.13500
H360        H  0.58479465  0.87245264  0.53567168     0.14100
C361        C  0.73746333  0.28433268  0.43617823    -0.12400
C362        C  0.69756872  0.27220778  0.44200048     0.09700
C363        C  0.67207680  0.26487541  0.41490060    -0.12400
C364        C  0.68565174  0.27148982  0.38254944    -0.12400
C365        C  0.72461693  0.28637852  0.37688333     0.09700
C366        C  0.75076938  0.29172828  0.40388159    -0.12400
H367        H  0.75768319  0.29020769  0.45666408     0.13700
H368        H  0.64121712  0.25532251  0.41878975     0.13700
H369        H  0.66489207  0.26728754  0.36213707     0.13700
H370        H  0.78101282  0.30311585  0.40010318     0.13700
C371        C  0.62854717  0.58071214  0.53543039    -0.12300
C372        C  0.63747034  0.61596110  0.53451342    -0.13900
C373        C  0.63028519  0.43285372  0.54109819    -0.12300
C374        C  0.63917378  0.39752567  0.54113756    -0.13900
C375        C  0.34364836  0.57522957  0.53748488    -0.12300
C376        C  0.33416947  0.61035137  0.53792144    -0.13900
C377        C  0.46929231  0.50423336  0.53904139    -0.12300
C378        C  0.50543314  0.50530070  0.53915400    -0.13900
C379        C  0.29865300  0.26262167  0.40654228    -0.12400
C380        C  0.27249714  0.26934974  0.43339198     0.09700
C381        C  0.23291690  0.28225729  0.42741254    -0.12400
C382        C  0.22059968  0.29112757  0.39520975    -0.12400
C383        C  0.24745161  0.28646742  0.36856583     0.09700
C384        C  0.28608302  0.27080872  0.37426264    -0.12400
H385        H  0.32933591  0.25253318  0.41062089     0.13700
H386        H  0.21228802  0.28771189  0.44774259     0.13700
H387        H  0.19053276  0.30300484  0.39125452     0.13700
H388        H  0.30725203  0.26708934  0.35404679     0.13700
C389        C  0.34688629  0.42756411  0.53391099    -0.12300
C390        C  0.33710913  0.39258823  0.53226836    -0.13900
C391        C  0.48477069  0.02266984  0.53263239    -0.12300
C392        C  0.48308249  0.98611238  0.53365862    -0.13900
C393        C  0.41291733  0.15226691  0.52726042    -0.15500
C394        C  0.41466532  0.19284504  0.52890146    -0.30700
H395        H  0.38408666  0.13701936  0.52542286     0.13500
H396        H  0.44358221  0.20781926  0.53128087     0.14100
C397        C  0.55943091  0.15210582  0.53494626    -0.15500
C398        C  0.55715967  0.19272488  0.53782326    -0.30700
H399        H  0.58848913  0.13715308  0.53353129     0.13500
H400        H  0.52787090  0.20715019  0.53980408     0.14100
C401        C  0.75201537  0.68536062  0.16539326    -0.12400
C402        C  0.75609027  0.71235423  0.19197408     0.09700
C403        C  0.76855644  0.75198343  0.18561927    -0.12400
C404        C  0.77858741  0.76385730  0.15343489    -0.12400
C405        C  0.77567806  0.73649356  0.12702449     0.09700
C406        C  0.76146466  0.69742818  0.13313894    -0.12400
H407        H  0.74267868  0.65455384  0.16966668     0.13700
H408        H  0.77226956  0.77326899  0.20570071     0.13700
H409        H  0.78954077  0.79415892  0.14930327     0.13700
H410        H  0.75928950  0.67570949  0.11320666     0.13700
C411        C  0.91847542  0.64589360  0.03502361    -0.15500
C412        C  0.91979743  0.68605646  0.04050191    -0.30700
H413        H  0.88991716  0.63098441  0.03051271     0.13500
H414        H  0.94844483  0.70052693  0.04554189     0.14100
C415        C  0.19780701  0.76785600  0.15519050    -0.12400
C416        C  0.20643153  0.74227381  0.12835674     0.09700
C417        C  0.22515078  0.70508065  0.13443150    -0.12400
C418        C  0.23248403  0.69250198  0.16693524    -0.12400
C419        C  0.22166787  0.71712258  0.19384991     0.09700
C420        C  0.20558126  0.75547667  0.18766504    -0.12400
H421        H  0.18348331  0.79677116  0.15116241     0.13700
H422        H  0.23208227  0.68479010  0.11420083     0.13700
H423        H  0.24507129  0.66280952  0.17106275     0.13700
H424        H  0.19691439  0.77498995  0.20797216     0.13700
C425        C  0.06528353  0.64704187  0.03357822    -0.15500
C426        C  0.06310017  0.68734711  0.03816804    -0.30700
H427        H  0.09422440  0.63237415  0.03005934     0.13500
H428        H  0.03402284  0.70165734  0.04194307     0.14100
C429        C  0.22203571  0.29638417  0.12486819    -0.12400
C430        C  0.20444473  0.25846880  0.11994326     0.09700
C431        C  0.19719998  0.23341980  0.14735773    -0.12400
C432        C  0.20593430  0.24675914  0.17934902    -0.12400
C433        C  0.22127326  0.28563018  0.18437107     0.09700
C434        C  0.23008473  0.30999757  0.15687359    -0.12400
H435        H  0.22771315  0.31630079  0.10411368     0.13700
H436        H  0.18363521  0.20402873  0.14413125     0.13700
H437        H  0.19864125  0.22756115  0.20020810     0.13700
H438        H  0.24189032  0.34012608  0.16018921     0.13700
C439        C  0.76058115  0.29973957  0.13155957    -0.12400
C440        C  0.77690275  0.26116305  0.12683826     0.09700
C441        C  0.78088705  0.23527776  0.15419661    -0.12400
C442        C  0.77002417  0.24825071  0.18593523    -0.12400
C443        C  0.75581543  0.28762323  0.19092273     0.09700
C444        C  0.75049916  0.31300793  0.16338520    -0.12400
H445        H  0.75739951  0.32030472  0.11087126     0.13700
H446        H  0.79334980  0.20534191  0.15114529     0.13700
H447        H  0.77471031  0.22820381  0.20676482     0.13700
H448        H  0.73972634  0.34356336  0.16658986     0.13700
C449        C  0.13335412  0.07272437  0.02259475    -0.12300
C450        C  0.14297697  0.10783203  0.02315048    -0.13900
C451        C  0.14380260  0.88988571  0.03017769    -0.12300
C452        C  0.13458663  0.92500614  0.02805136    -0.13900
C453        C  0.84983215  0.07140962  0.03722691    -0.12300
C454        C  0.84074781  0.10672472  0.03766534    -0.13900
C455        C  0.83919610  0.88811219  0.03545586    -0.12300
C456        C  0.84904507  0.92321151  0.03566420    -0.13900
C457        C  0.00978811  0.99773580  0.02995142    -0.12300
C458        C  0.97364141  0.99699341  0.03187578    -0.13900
C459        C  0.99276351  0.51725342  0.02742090    -0.12300
C460        C  0.99247580  0.48064280  0.02672936    -0.13900
C461        C  0.91842272  0.35126970  0.02932790    -0.15500
C462        C  0.92045553  0.31081528  0.03339190    -0.30700
H463        H  0.88947744  0.36623240  0.02679453     0.13500
H464        H  0.94959941  0.29635483  0.03637808     0.14100
C465        C  0.06512003  0.35079212  0.02999754    -0.15500
C466        C  0.06294986  0.31036695  0.03371540    -0.30700
H467        H  0.09404441  0.36552808  0.02675039     0.13500
H468        H  0.03391097  0.29598853  0.03738484     0.14100
C469        C  0.71836986  0.20506152  0.63151906    -0.12400
C470        C  0.70193806  0.24359505  0.62680286     0.09700
C471        C  0.69721389  0.26927653  0.65413402    -0.12400
C472        C  0.70702098  0.25602962  0.68592747    -0.12400
C473        C  0.72097250  0.21661710  0.69098380     0.09700
C474        C  0.72747408  0.19150439  0.66345610    -0.12400
H475        H  0.72207003  0.18468327  0.61078939     0.13700
H476        H  0.68467513  0.29917609  0.65103703     0.13700
H477        H  0.70154498  0.27589503  0.70674492     0.13700
H478        H  0.73812694  0.16092479  0.66674550     0.13700
C479        C  0.72536132  0.20366056  0.90514581    -0.12400
C480        C  0.74916687  0.21333581  0.87745120     0.09700
C481        C  0.78647525  0.23236181  0.88226280    -0.12400
C482        C  0.80056073  0.23978536  0.91433417    -0.12400
C483        C  0.77718514  0.22903067  0.94201932     0.09700
C484        C  0.73907774  0.21179863  0.93713760    -0.12400
H485        H  0.69650657  0.18888700  0.90209303     0.13700
H486        H  0.80551426  0.23984223  0.86132427     0.13700
H487        H  0.83012492  0.25302144  0.91752208     0.13700
H488        H  0.72066293  0.20292151  0.95809481     0.13700
C489        C  0.72467810  0.81494874  0.66518600    -0.12400
C490        C  0.71561561  0.78991465  0.69227303     0.09700
C491        C  0.69942008  0.75155222  0.68637180    -0.12400
C492        C  0.69036891  0.73936481  0.65406609    -0.12400
C493        C  0.69796500  0.76508905  0.62710069     0.09700
C494        C  0.71627499  0.80248882  0.63285443    -0.12400
H495        H  0.73716734  0.84469370  0.66907849     0.13700
H496        H  0.69194687  0.73176830  0.70681957     0.13700
H497        H  0.67630656  0.71033054  0.65026460     0.13700
H498        H  0.72230070  0.82292252  0.61250770     0.13700
C499        C  0.72142644  0.78419011  0.90425234    -0.12400
C500        C  0.74785123  0.78253331  0.87702364     0.09700
C501        C  0.78728029  0.76829961  0.88182651    -0.12400
C502        C  0.80090451  0.75867309  0.91365042    -0.12400
C503        C  0.77517369  0.76259451  0.94118175     0.09700
C504        C  0.73487519  0.77396942  0.93602706    -0.12400
H505        H  0.69079163  0.79487090  0.90116755     0.13700
H506        H  0.80826655  0.76675457  0.86127084     0.13700
H507        H  0.83210498  0.74988506  0.91689552     0.13700
H508        H  0.71441192  0.77729438  0.95679161     0.13700
C509        C  0.26289401  0.74702392  0.68827035    -0.12400
C510        C  0.24844240  0.78627847  0.69333630     0.09700
C511        C  0.23991368  0.81073042  0.66580675    -0.12400
C512        C  0.24834845  0.79717593  0.63380872    -0.12400
C513        C  0.26609111  0.75928315  0.62897579     0.09700
C514        C  0.27203799  0.73375320  0.65630358    -0.12400
H515        H  0.26968746  0.72760676  0.70911105     0.13700
H516        H  0.22855882  0.84106584  0.66911362     0.13700
H517        H  0.24350392  0.81736184  0.61308167     0.13700
H518        H  0.28547406  0.70426739  0.65308734     0.13700
C519        C  0.19065665  0.76631196  0.88255853    -0.12400
C520        C  0.22756297  0.78591397  0.87728886     0.09700
C521        C  0.25338936  0.79271844  0.90421949    -0.12400
C522        C  0.24167383  0.78189907  0.93619778    -0.12400
C523        C  0.20364029  0.76479586  0.94178663     0.09700
C524        C  0.17858498  0.75617792  0.91467273    -0.12400
H525        H  0.17025146  0.76083074  0.86214401     0.13700
H526        H  0.28210968  0.80764698  0.90068783     0.13700
H527        H  0.26135855  0.78911995  0.95673876     0.13700
H528        H  0.14902906  0.74309093  0.91844653     0.13700
C529        C  0.17512183  0.93294045  0.78855304    -0.15500
C530        C  0.13439744  0.93132766  0.78848764    -0.30700
H531        H  0.19015501  0.96193877  0.78872215     0.13500
H532        H  0.11904729  0.90250030  0.78839715     0.14100
C533        C  0.59487260  0.15561195  0.78301014    -0.12300
C534        C  0.55972713  0.14633314  0.78047781    -0.13900
C535        C  0.55956392  0.86503681  0.78472414    -0.12300
C536        C  0.59448171  0.85490583  0.78694194    -0.13900
C537        C  0.41176479  0.86375650  0.78469856    -0.12300
C538        C  0.37690680  0.85332397  0.78632916    -0.13900
C539        C  0.48459286  0.98737870  0.76851499    -0.12300
C540        C  0.48475496  0.02358861  0.76764429    -0.13900
C541        C  0.25584694  0.25625012  0.67577681    -0.12400
C542        C  0.24678879  0.21579121  0.68244927     0.09700
C543        C  0.24382814  0.18850073  0.65595281    -0.12400
C544        C  0.25244499  0.20089921  0.62359925    -0.12400
C545        C  0.26457254  0.24065352  0.61735959     0.09700
C546        C  0.26488816  0.26852479  0.64351785    -0.12400
H547        H  0.25830427  0.27789366  0.69572933     0.13700
H548        H  0.23677169  0.15712443  0.66043632     0.13700
H549        H  0.25195480  0.17886699  0.60384160     0.13700
H550        H  0.27390143  0.29945214  0.63927649     0.13700
C551        C  0.25699553  0.21874833  0.89558379    -0.14000
C552        C  0.23043585  0.22560528  0.86905887     0.09700
C553        C  0.19261806  0.24293199  0.87533887    -0.12400
C554        C  0.18020155  0.25000105  0.90788619    -0.12400
C555        C  0.20565504  0.24037037  0.93455061     0.09700
C556        C  0.24478475  0.22633799  0.92811128    -0.12400
H557        H  0.28643451  0.20556965  0.89130961     0.13700
H558        H  0.17162101  0.24847051  0.85530303     0.13700
H559        H  0.14992514  0.26107111  0.91226216     0.13700
H560        H  0.26494903  0.21869532  0.94825869     0.13700
C561        C  0.17400112  0.07735111  0.78638127    -0.15500
C562        C  0.13323892  0.07847574  0.78480050    -0.30700
H563        H  0.18921283  0.04862480  0.78939560     0.13500
H564        H  0.11759347  0.10699891  0.78206199     0.14100
C565        C  0.41166062  0.14825090  0.77501147    -0.12300
C566        C  0.37650767  0.15803989  0.77583241    -0.13900
C567        C  0.96762148  0.00275154  0.78658299    -0.12300
C568        C  0.00430482  0.00352133  0.78679153    -0.13900
C569        C  0.83829098  0.07639260  0.78666369    -0.15500
C570        C  0.79761191  0.07446078  0.78768265    -0.30700
H571        H  0.85354927  0.10522910  0.78544564     0.13500
H572        H  0.78269240  0.04544361  0.78916991     0.14100
C573        C  0.79666052  0.93174726  0.78950346    -0.15500
C574        C  0.83733471  0.92978201  0.78657311    -0.30700
H575        H  0.78205342  0.96076798  0.79248592     0.13500
H576        H  0.85233422  0.90086786  0.78410224     0.14100
loop_ 
_geom_bond_atom_site_label_1 
_geom_bond_atom_site_label_2 
_geom_bond_distance 
_geom_bond_site_symmetry_2 
_ccdc_geom_bond_type 
C1            N2   1.370   1_545  A
C1            N6   1.367       .  A
C1          C567   1.454       .  S
N2            C3   1.365       .  A
C3            N4   1.349   1_565  A
C3          C574   1.490       .  S
N4            C5   1.350       .  A
C5            N6   1.362       .  A
C5          C569   1.485       .  S
In7           O9   2.279       .  S
In7          O10   2.233       .  S
In7          O18   2.234       .  S
In7          O12   2.252       .  S
In7          O14   2.259       .  S
In7          O15   2.248       .  S
In7          O16   2.229       .  S
In7          O19   2.262       .  S
C8           O14   1.263       .  A
C8           O16   1.257       .  A
C8          C552   1.473       .  S
O9           C17   1.261       .  A
O10          C17   1.261       .  A
C11          O18   1.259       .  A
C11          O12   1.263       .  A
C11         C542   1.475       .  S
C13         C566   1.443       .  S
C13          O15   1.262       .  A
C13          O19   1.261       .  A
C17         C561   1.477       .  S
C20          N21   1.355       .  A
C20          N25   1.364       .  A
C20         C535   1.440       .  S
N21          C22   1.353       .  A
C22          N23   1.353       .  A
C22         C539   1.431       .  S
N23          C24   1.356       .  A
C24          N25   1.364       .  A
C24         C537   1.440       .  S
C26          N27   1.366       .  A
C26          N31   1.355       .  A
C26         C565   1.442       .  S
N27          C28   1.366       .  A
C28          N29   1.356       .  A
C28         C534   1.443       .  S
N29          C30   1.353       .  A
C30          N31   1.352       .  A
C30         C540   1.430       .  S
In32         O34   2.263       .  S
In32         O35   2.247       .  S
In32         O43   2.233       .  S
In32         O37   2.251       .  S
In32         O39   2.251       .  S
In32         O40   2.232       .  S
In32         O41   2.227       .  S
In32         O44   2.273       .  S
C33          O39   1.261       .  A
C33          O41   1.258       .  A
C33         C520   1.470       .  S
O34          C42   1.260       .  A
O35          C42   1.260       .  A
C36          O43   1.258       .  A
C36          O37   1.261       .  A
C36         C510   1.472       .  S
C38         C529   1.474       .  S
C38          O40   1.260       .  A
C38          O44   1.261       .  A
C42         C538   1.441       .  S
In45         O47   2.272       .  S
In45         O48   2.240       .  S
In45         O56   2.240       .  S
In45         O50   2.259       .  S
In45         O52   2.262       .  S
In45         O53   2.248       .  S
In45         O54   2.248       .  S
In45         O57   2.256       .  S
C46          O52   1.261       .  A
C46          O54   1.258       .  A
C46         C500   1.479       .  S
O47          C55   1.261       .  A
O48          C55   1.262       .  A
C49          O56   1.259       .  A
C49          O50   1.263       .  A
C49         C490   1.477       .  S
C51         C536   1.441       .  S
C51          O53   1.262       .  A
C51          O57   1.260       .  A
C55         C573   1.477       .  S
In58         O60   2.261       .  S
In58         O61   2.247       .  S
In58         O69   2.235       .  S
In58         O63   2.245       .  S
In58         O65   2.258       .  S
In58         O66   2.220       .  S
In58         O67   2.230       .  S
In58         O70   2.261       .  S
C59          O65   1.263       .  A
C59          O67   1.259       .  A
C59         C480   1.475       .  S
O60          C68   1.261       .  A
O61          C68   1.262       .  A
C62          O69   1.259       .  A
C62          O63   1.263       .  A
C62         C473   1.473       .  S
C64         C570   1.468       .  S
C64          O66   1.262       .  A
C64          O70   1.261       .  A
C68         C533   1.443       .  S
C71          N72   1.368       .  A
C71          N76   1.366   1_545  A
C71         C568   1.454       .  S
N72          C73   1.364       .  A
C73          N74   1.352       .  A
C73         C562   1.491       .  S
N74          C75   1.352   1_545  A
C75          N76   1.362       .  A
C75         C530   1.488       .  S
C77          N78   1.367   1_655  A
C77          N82   1.369       .  A
C77         C460   1.453       .  S
N78          C79   1.362       .  A
C79          N80   1.349   1_455  A
C79         C465   1.485       .  S
N80          C81   1.349       .  A
C81          N82   1.364       .  A
C81         C461   1.490       .  S
C83          N84   1.367       .  A
C83          N88   1.356       .  A
C83         C456   1.443       .  S
N84          C85   1.366   1_565  A
C85          N86   1.354       .  A
C85         C453   1.442       .  S
N86          C87   1.351   1_545  A
C87          N88   1.353       .  A
C87         C458   1.428       .  S
C89          N90   1.365   1_545  A
C89          N94   1.356       .  A
C89         C449   1.441       .  S
N90          C91   1.365       .  A
C91          N92   1.354       .  A
C91         C452   1.438       .  S
N92          C93   1.350       .  A
C93          N94   1.352   1_565  A
C93         C457   1.428       .  S
In95         O97   2.259       .  S
In95         O98   2.253       .  S
In95        O106   2.236   1_554  S
In95        O100   2.249       .  S
In95        O102   2.259       .  S
In95        O103   2.232       .  S
In95        O104   2.241       .  S
In95        O107   2.274       .  S
C96         O102   1.262       .  A
C96         O104   1.258       .  A
C96         C440   1.476       .  S
O97         C105   1.260       .  A
O98         C105   1.263       .  A
C99         O106   1.259       .  A
C99         O100   1.263   1_556  A
C99         C483   1.474       .  S
C101        C462   1.474       .  S
C101        O103   1.262       .  A
C101        O107   1.261       .  A
C105        C454   1.444       .  S
In108       O110   2.259       .  S
In108       O111   2.230       .  S
In108       O119   2.223   1_554  S
In108       O113   2.250   1_554  S
In108       O115   2.244       .  S
In108       O116   2.246       .  S
In108       O117   2.234       .  S
In108       O120   2.258       .  S
C109        O115   1.262       .  A
C109        O117   1.259       .  A
C109        C430   1.471       .  S
O110        C118   1.260       .  A
O111        C118   1.262       .  A
C112        O119   1.259       .  A
C112        O113   1.263       .  A
C112        C555   1.472       .  S
C114        C450   1.442       .  S
C114        O116   1.262       .  A
C114        O120   1.261       .  A
C118        C466   1.470       .  S
In121       O123   2.252       .  S
In121       O124   2.247       .  S
In121       O132   2.227   1_554  S
In121       O126   2.241       .  S
In121       O128   2.260       .  S
In121       O129   2.230       .  S
In121       O130   2.234       .  S
In121       O133   2.262       .  S
C122        O128   1.262       .  A
C122        O130   1.258       .  A
C122        C416   1.476       .  S
O123        C131   1.260       .  A
O124        C131   1.263       .  A
C125        O132   1.259       .  A
C125        O126   1.264   1_556  A
C125        C523   1.470       .  S
C127        C426   1.472       .  S
C127        O129   1.262       .  A
C127        O133   1.261       .  A
C131        C451   1.440       .  S
In134       O136   2.266       .  S
In134       O137   2.235       .  S
In134       O145   2.236   1_554  S
In134       O139   2.260       .  S
In134       O141   2.256       .  S
In134       O142   2.249       .  S
In134       O143   2.234       .  S
In134       O146   2.261       .  S
C135        O141   1.263       .  A
C135        O143   1.258       .  A
C135        C405   1.473       .  S
O136        C144   1.261       .  A
O137        C144   1.262       .  A
C138        O145   1.259       .  A
C138        O139   1.264   1_556  A
C138        C503   1.479       .  S
C140        C455   1.444       .  S
C140        O142   1.263       .  A
C140        O146   1.261       .  A
C144        C412   1.473       .  S
C147        N148   1.368   1_655  A
C147        N152   1.367       .  A
C147        C459   1.453       .  S
N148        C149   1.363       .  A
C149        N150   1.350   1_455  A
C149        C425   1.487       .  S
N150        C151   1.350       .  A
C151        N152   1.362       .  A
C151        C411   1.486       .  S
C153        N154   1.370       .  A
C153        N158   1.365       .  A
C153        C391   1.452       .  S
N154        C155   1.365       .  A
C155        N156   1.350       .  A
C155        C397   1.491       .  S
N156        C157   1.350       .  A
C157        N158   1.360       .  A
C157        C393   1.483       .  S
In159       O161   2.262       .  S
In159       O162   2.228       .  S
In159       O170   2.221       .  S
In159       O164   2.248       .  S
In159       O166   2.262       .  S
In159       O167   2.244       .  S
In159       O168   2.235       .  S
In159       O171   2.251       .  S
C160        O166   1.261       .  A
C160        O168   1.256       .  A
C160        C545   1.474       .  S
O161        C169   1.260       .  A
O162        C169   1.261       .  A
C163        O170   1.257       .  A
C163        O164   1.262       .  A
C163        C380   1.468       .  S
C165        C390   1.439       .  S
C165        O167   1.263       .  A
C165        O171   1.261       .  A
C169        C394   1.468       .  S
C172        N173   1.355       .  A
C172        N177   1.365       .  A
C172        C389   1.439       .  S
N173        C174   1.352       .  A
C174        N175   1.350       .  A
C174        C377   1.424       .  S
N175        C176   1.353       .  A
C176        N177   1.364       .  A
C176        C375   1.437       .  S
C178        N179   1.366       .  A
C178        N183   1.354       .  A
C178        C371   1.438       .  S
N179        C180   1.366       .  A
C180        N181   1.353       .  A
C180        C373   1.439       .  S
N181        C182   1.350       .  A
C182        N183   1.351       .  A
C182        C378   1.424       .  S
In184       O186   2.258       .  S
In184       O187   2.251       .  S
In184       O195   2.235       .  S
In184       O189   2.250       .  S
In184       O191   2.253       .  S
In184       O192   2.236       .  S
In184       O193   2.228       .  S
In184       O196   2.275       .  S
C185        O191   1.262       .  A
C185        O193   1.259       .  A
C185        C470   1.471       .  S
O186        C194   1.260       .  A
O187        C194   1.263       .  A
C188        O195   1.260       .  A
C188        O189   1.263       .  A
C188        C362   1.474       .  S
C190        C398   1.476       .  S
C190        O192   1.262       .  A
C190        O196   1.260       .  A
C194        C374   1.442       .  S
In197       O199   2.264       .  S
In197       O200   2.228       .  S
In197       O208   2.239       .  S
In197       O202   2.249       .  S
In197       O204   2.256       .  S
In197       O205   2.247       .  S
In197       O206   2.238       .  S
In197       O209   2.254       .  S
C198        O204   1.262       .  A
C198        O206   1.258       .  A
C198        C493   1.476       .  S
O199        C207   1.261       .  A
O200        C207   1.261       .  A
C201        O208   1.259       .  A
C201        O202   1.262       .  A
C201        C348   1.473       .  S
C203        C372   1.439       .  S
C203        O205   1.262       .  A
C203        O209   1.260       .  A
C207        C357   1.470       .  S
In210       O212   2.252       .  S
In210       O213   2.249       .  S
In210       O221   2.237       .  S
In210       O215   2.243       .  S
In210       O217   2.249       .  S
In210       O218   2.234       .  S
In210       O219   2.231       .  S
In210       O222   2.274       .  S
C211        O217   1.262       .  A
C211        O219   1.259       .  A
C211        C513   1.471       .  S
O212        C220   1.259       .  A
O213        C220   1.263       .  A
C214        O221   1.260       .  A
C214        O215   1.263       .  A
C214        C334   1.473       .  S
C216        C343   1.476       .  S
C216        O218   1.262       .  A
C216        O222   1.261       .  A
C220        C376   1.439       .  S
C223        N224   1.370       .  A
C223        N228   1.365       .  A
C223        C392   1.452       .  S
N224        C225   1.365       .  A
C225        N226   1.351       .  A
C225        C344   1.491       .  S
N226        C227   1.350       .  A
C227        N228   1.360       .  A
C227        C358   1.484       .  S
C229        N230   1.367       .  A
C229        N234   1.368       .  A
C229        C324   1.452       .  S
N230        C231   1.362       .  A
C231        N232   1.350       .  A
C231        C325   1.487       .  S
N232        C233   1.350       .  A
C233        N234   1.363       .  A
C233        C330   1.488       .  S
C235        N236   1.355       .  A
C235        N240   1.365   1_455  A
C235        C319   1.440       .  S
N236        C237   1.352   1_455  A
C237        N238   1.350       .  A
C237        C321   1.426       .  S
N238        C239   1.353       .  A
C239        N240   1.365       .  A
C239        C317   1.438       .  S
C241        N242   1.355       .  A
C241        N246   1.365       .  A
C241        C314   1.440       .  S
N242        C243   1.352       .  A
C243        N244   1.351   1_655  A
C243        C322   1.427       .  S
N244        C245   1.354       .  A
C245        N246   1.365   1_455  A
C245        C316   1.440       .  S
In247       O249   2.269       .  S
In247       O250   2.231       .  S
In247       O258   2.228       .  S
In247       O252   2.246       .  S
In247       O254   2.248       .  S
In247       O255   2.248       .  S
In247       O256   2.218       .  S
In247       O259   2.258       .  S
C248        O254   1.263       .  A
C248        O256   1.258       .  A
C248        C383   1.466       .  S
O249        C257   1.261       .  A
O250        C257   1.262       .  A
C251        O258   1.259       .  A
C251        O252   1.262       .  A
C251        C433   1.470       .  S
C253        C320   1.441       .  S
C253        O255   1.262       .  A
C253        O259   1.260       .  A
C257        C329   1.473       .  S
In260       O262   2.251       .  S
In260       O263   2.247       .  S
In260       O271   2.235       .  S
In260       O265   2.255       .  S
In260       O267   2.259       .  S
In260       O268   2.231       .  S
In260       O269   2.231       .  S
In260       O272   2.274       .  S
C261        O267   1.263       .  A
C261        O269   1.258       .  A
C261        C365   1.474       .  S
O262        C270   1.260       .  A
O263        C270   1.263       .  A
C264        O271   1.259       .  A
C264        O265   1.263       .  A
C264        C443   1.476       .  S
C266        C309   1.475       .  S
C266        O268   1.261       .  A
C266        O272   1.262       .  A
C270        C318   1.440       .  S
In273       O275   2.278       .  S
In273       O276   2.228       .  S
In273       O284   2.230       .  S
In273       O278   2.249       .  S
In273       O280   2.263       .  S
In273       O281   2.247       .  S
In273       O282   2.230       .  S
In273       O285   2.258       .  S
C274        O280   1.262       .  A
C274        O282   1.258       .  A
C274        C351   1.475       .  S
O275        C283   1.262       .  A
O276        C283   1.260       .  A
C277        O284   1.259       .  A
C277        O278   1.263       .  A
C277        C402   1.474       .  S
C279        C313   1.441       .  S
C279        O281   1.262       .  A
C279        O285   1.260       .  A
C283        C305   1.474       .  S
In286       O288   2.258       .  S
In286       O289   2.250       .  S
In286       O297   2.233       .  S
In286       O291   2.260       .  S
In286       O293   2.261       .  S
In286       O294   2.228       .  S
In286       O295   2.235       .  S
In286       O298   2.270       .  S
C287        O293   1.263       .  A
C287        O295   1.258       .  A
C287        C337   1.476       .  S
O288        C296   1.260       .  A
O289        C296   1.262       .  A
C290        O297   1.257       .  A
C290        O291   1.263       .  A
C290        C419   1.476       .  S
C292        C326   1.472       .  S
C292        O294   1.261       .  A
C292        O298   1.262       .  A
C296        C315   1.441       .  S
C299        N300   1.367       .  A
C299        N304   1.368       .  A
C299        C323   1.452       .  S
N300        C301   1.362       .  A
C301        N302   1.351       .  A
C301        C310   1.488       .  S
N302        C303   1.352       .  A
C303        N304   1.363       .  A
C303        C306   1.489       .  S
C305        C306   1.353       .  D
C305        H307   1.085       .  S
C306        H308   1.085       .  S
C309        C310   1.352       .  D
C309        H311   1.085       .  S
C310        H312   1.085       .  S
C313        C314   1.209       .  T
C315        C316   1.209       .  T
C317        C318   1.208       .  T
C319        C320   1.209       .  T
C321        C322   1.200       .  T
C323        C324   1.216       .  T
C325        C326   1.352       .  D
C325        H327   1.085       .  S
C326        H328   1.085       .  S
C329        C330   1.353       .  D
C329        H331   1.085       .  S
C330        H332   1.085       .  S
C333        C334   1.403       .  A
C333        C338   1.397       .  A
C333        H339   1.083       .  S
C334        C335   1.405       .  A
C335        C336   1.399       .  A
C335        H340   1.083       .  S
C336        C337   1.404       .  A
C336        H341   1.084       .  S
C337        C338   1.405       .  A
C338        H342   1.083       .  S
C343        C344   1.355       .  D
C343        H345   1.085       .  S
C344        H346   1.085       .  S
C347        C348   1.406       .  A
C347        C352   1.399       .  A
C347        H353   1.083       .  S
C348        C349   1.402       .  A
C349        C350   1.396       .  A
C349        H354   1.084       .  S
C350        C351   1.405       .  A
C350        H355   1.083       .  S
C351        C352   1.404       .  A
C352        H356   1.083       .  S
C357        C358   1.351       .  D
C357        H359   1.085       .  S
C358        H360   1.085       .  S
C361        C362   1.403       .  A
C361        C366   1.398       .  A
C361        H367   1.083       .  S
C362        C363   1.405       .  A
C363        C364   1.398       .  A
C363        H368   1.083       .  S
C364        C365   1.403       .  A
C364        H369   1.084       .  S
C365        C366   1.405       .  A
C366        H370   1.083       .  S
C371        C372   1.208       .  T
C373        C374   1.209       .  T
C375        C376   1.207       .  T
C377        C378   1.199       .  T
C379        C380   1.405       .  A
C379        C384   1.395       .  A
C379        H385   1.084       .  S
C380        C381   1.401       .  A
C381        C382   1.394       .  A
C381        H386   1.083       .  S
C382        C383   1.404       .  A
C382        H387   1.084       .  S
C383        C384   1.401       .  A
C384        H388   1.083       .  S
C389        C390   1.208       .  T
C391        C392   1.216   1_545  T
C393        C394   1.350       .  D
C393        H395   1.085       .  S
C394        H396   1.085       .  S
C397        C398   1.356       .  D
C397        H399   1.085       .  S
C398        H400   1.085       .  S
C401        C402   1.406       .  A
C401        C406   1.397       .  A
C401        H407   1.083       .  S
C402        C403   1.403       .  A
C403        C404   1.397       .  A
C403        H408   1.083       .  S
C404        C405   1.405       .  A
C404        H409   1.083       .  S
C405        C406   1.402       .  A
C406        H410   1.084       .  S
C411        C412   1.353       .  D
C411        H413   1.085       .  S
C412        H414   1.085       .  S
C415        C416   1.406       .  A
C415        C420   1.398       .  A
C415        H421   1.083       .  S
C416        C417   1.403       .  A
C417        C418   1.398       .  A
C417        H422   1.083       .  S
C418        C419   1.406       .  A
C418        H423   1.083       .  S
C419        C420   1.402       .  A
C420        H424   1.084       .  S
C425        C426   1.353       .  D
C425        H427   1.085       .  S
C426        H428   1.085       .  S
C429        C430   1.403       .  A
C429        C434   1.396       .  A
C429        H435   1.083       .  S
C430        C431   1.404       .  A
C431        C432   1.397       .  A
C431        H436   1.083       .  S
C432        C433   1.403       .  A
C432        H437   1.083       .  S
C433        C434   1.404       .  A
C434        H438   1.083       .  S
C439        C440   1.403       .  A
C439        C444   1.399       .  A
C439        H445   1.084       .  S
C440        C441   1.405       .  A
C441        C442   1.399       .  A
C441        H446   1.083       .  S
C442        C443   1.404       .  A
C442        H447   1.083       .  S
C443        C444   1.406       .  A
C444        H448   1.083       .  S
C449        C450   1.209       .  T
C451        C452   1.208       .  T
C453        C454   1.210       .  T
C455        C456   1.211       .  T
C457        C458   1.201   1_455  T
C459        C460   1.216       .  T
C461        C462   1.355       .  D
C461        H463   1.085       .  S
C462        H464   1.085       .  S
C465        C466   1.352       .  D
C465        H467   1.085       .  S
C466        H468   1.085       .  S
C469        C470   1.403       .  A
C469        C474   1.399       .  A
C469        H475   1.083       .  S
C470        C471   1.404       .  A
C471        C472   1.395       .  A
C471        H476   1.083       .  S
C472        C473   1.402       .  A
C472        H477   1.084       .  S
C473        C474   1.406       .  A
C474        H478   1.083       .  S
C479        C480   1.405       .  A
C479        C484   1.397       .  A
C479        H485   1.083       .  S
C480        C481   1.404       .  A
C481        C482   1.399       .  A
C481        H486   1.083       .  S
C482        C483   1.405       .  A
C482        H487   1.083       .  S
C483        C484   1.402       .  A
C484        H488   1.084       .  S
C489        C490   1.405       .  A
C489        C494   1.398       .  A
C489        H495   1.083       .  S
C490        C491   1.404       .  A
C491        C492   1.399       .  A
C491        H496   1.083       .  S
C492        C493   1.406       .  A
C492        H497   1.083       .  S
C493        C494   1.403       .  A
C494        H498   1.083       .  S
C499        C500   1.406       .  A
C499        C504   1.400       .  A
C499        H505   1.083       .  S
C500        C501   1.403       .  A
C501        C502   1.399       .  A
C501        H506   1.083       .  S
C502        C503   1.406       .  A
C502        H507   1.083       .  S
C503        C504   1.404       .  A
C504        H508   1.083       .  S
C509        C510   1.403       .  A
C509        C514   1.397       .  A
C509        H515   1.083       .  S
C510        C511   1.405       .  A
C511        C512   1.396       .  A
C511        H516   1.083       .  S
C512        C513   1.402       .  A
C512        H517   1.084       .  S
C513        C514   1.405       .  A
C514        H518   1.083       .  S
C519        C520   1.403       .  A
C519        C524   1.397       .  A
C519        H525   1.083       .  S
C520        C521   1.404       .  A
C521        C522   1.395       .  A
C521        H526   1.083       .  S
C522        C523   1.402       .  A
C522        H527   1.083       .  S
C523        C524   1.405       .  A
C524        H528   1.083       .  S
C529        C530   1.352       .  D
C529        H531   1.085       .  S
C530        H532   1.085       .  S
C533        C534   1.210       .  T
C535        C536   1.209       .  T
C537        C538   1.209       .  T
C539        C540   1.203   1_565  T
C541        C542   1.403       .  A
C541        C546   1.397       .  A
C541        H547   1.083       .  S
C542        C543   1.406       .  A
C543        C544   1.398       .  A
C543        H548   1.083       .  S
C544        C545   1.403       .  A
C544        H549   1.083       .  S
C545        C546   1.405       .  A
C546        H550   1.083       .  S
C551        C552   1.406       .  A
C551        C556   1.397       .  A
C551        H557   1.083       .  S
C552        C553   1.402       .  A
C553        C554   1.396       .  A
C553        H558   1.083       .  S
C554        C555   1.405       .  A
C554        H559   1.083       .  S
C555        C556   1.402       .  A
C556        H560   1.083       .  S
C561        C562   1.354       .  D
C561        H563   1.085       .  S
C562        H564   1.085       .  S
C565        C566   1.210       .  T
C567        C568   1.217   1_655  T
C569        C570   1.351       .  D
C569        H571   1.085       .  S
C570        H572   1.085       .  S
C573        C574   1.355       .  D
C573        H575   1.085       .  S
C574        H576   1.085       .  S
