geometry optimzed in LAMMPS
_audit_creation_date              2020-11-30 
_audit_creation_method            'lammps2cif' 
_symmetry_space_group_name_H-M    'P1' 
_symmetry_Int_Tables_number       1 
_symmetry_cell_setting            triclinic 
loop_ 
_symmetry_equiv_pos_as_xyz 
  x,y,z 
_cell_length_a                    43.99483067616154 
_cell_length_b                    27.815808862135608 
_cell_length_c                    36.36961751301041 
_cell_angle_alpha                 87.13552727061885 
_cell_angle_beta                  89.97653595514302 
_cell_angle_gamma                 89.21357778787788 
loop_ 
_atom_site_label 
_atom_site_type_symbol 
_atom_site_fract_x 
_atom_site_fract_y 
_atom_site_fract_z 
_atom_site_charge 
C1          C  0.35110118  0.09518135  0.14549650     0.06560
C2          C  0.37359352  0.07428833  0.12402186    -0.09590
C3          C  0.39346209  0.10361093  0.10315366     0.04060
C4          C  0.39088652  0.15399810  0.10419043    -0.08120
C5          C  0.36828924  0.17509139  0.12610080     0.06550
C6          C  0.34838994  0.14516207  0.14628558    -0.07540
H7          H  0.37549036  0.03542222  0.12335821     0.12140
H8          H  0.40598605  0.17627146  0.08739325     0.09670
H9          H  0.33079031  0.16086481  0.16301885     0.09520
O10         O  0.46662906  0.93972611  0.48961609    -0.71000
O11         O  0.02886251  0.98544921  0.04868864    -0.71030
O12         O  0.46677808  0.99682145  0.04830273    -0.71080
O13         O  0.02895035  0.93261240  0.48817135    -0.71130
O14         O  0.02832682  0.00006271  0.45211728    -0.71060
O15         O  0.46693271  0.06212827  0.01002850    -0.71040
O16         O  0.02807541  0.05289244  0.01263805    -0.71020
O17         O  0.46661882  0.00499720  0.45129163    -0.71080
Ni18       Ni  0.49742801  0.96497060  0.02022805     1.25410
Ni19       Ni  0.49754921  0.03505525  0.47927681     1.25360
C20         C  0.45678256  0.96302685  0.46072927     0.91180
C21         C  0.03842034  0.02787463  0.04044067     0.91110
C22         C  0.45704671  0.03930325  0.03892429     0.91140
C23         C  0.03859601  0.95759053  0.46020688     0.91310
C24         C  0.10125674  0.09493980  0.10095693     0.06560
C25         C  0.12261275  0.07089428  0.12387973    -0.09590
C26         C  0.14362253  0.09719427  0.14324252     0.04060
C27         C  0.14313570  0.14766039  0.13989429    -0.08120
C28         C  0.12143217  0.17217592  0.11712511     0.06550
C29         C  0.10079449  0.14527115  0.09745740    -0.07540
H30         H  0.12299606  0.03187117  0.12647674     0.12140
H31         H  0.16004119  0.16728119  0.15444473     0.09670
H32         H  0.08413383  0.16356286  0.07957004     0.09520
C33         C  0.35446781  0.88602889  0.35646128     0.06560
C34         C  0.37466243  0.91367323  0.37601989    -0.09590
C35         C  0.39634904  0.89093161  0.39933010     0.04060
C36         C  0.39791281  0.84047926  0.40272865    -0.08120
C37         C  0.37797295  0.81239509  0.38281590     0.06550
C38         C  0.35598448  0.83576325  0.35995751    -0.07540
H39         H  0.37332418  0.95265422  0.37336096     0.12140
H40         H  0.41475336  0.82305674  0.42082766     0.09670
H41         H  0.33947407  0.81540435  0.34539482     0.09520
O42         O  0.21681613  0.98582033  0.20181371    -0.71000
O43         O  0.27840605  0.92556520  0.26364156    -0.71030
O44         O  0.21684751  0.92704471  0.26356489    -0.71080
O45         O  0.27834972  0.98345829  0.20178024    -0.71130
O46         O  0.27860317  0.04786645  0.23612009    -0.71060
O47         O  0.21694707  0.99127978  0.29807148    -0.71040
O48         O  0.27847588  0.99003224  0.29791232    -0.71020
O49         O  0.21713013  0.05002385  0.23633987    -0.71080
Ni50       Ni  0.24755781  0.95313325  0.23146702     1.25410
Ni51       Ni  0.24776348  0.02211420  0.26835139     1.25360
C52         C  0.20708524  0.02794752  0.20894674     0.91180
C53         C  0.28859943  0.94826448  0.29071667     0.91110
C54         C  0.20696301  0.94974600  0.29093882     0.91140
C55         C  0.28858415  0.02471785  0.20896269     0.91310
C56         C  0.10096288  0.88852841  0.39885745     0.06560
C57         C  0.12234840  0.91152243  0.37595202    -0.09590
C58         C  0.14322160  0.88417293  0.35654750     0.04060
C59         C  0.14258451  0.83374555  0.35983284    -0.08120
C60         C  0.12082576  0.81028560  0.38256826     0.06550
C61         C  0.10030114  0.83821858  0.40227626    -0.07540
H62         H  0.12288006  0.95052732  0.37343038     0.12140
H63         H  0.15943940  0.81333292  0.34526753     0.09670
H64         H  0.08361012  0.82076492  0.42017503     0.09520
C65         C  0.35306120  0.59680703  0.35124972     0.06560
C66         C  0.35145500  0.64725928  0.34790034    -0.09590
C67         C  0.37135715  0.67535015  0.36786110     0.04060
C68         C  0.39334535  0.65198781  0.39072412    -0.08120
C69         C  0.39490145  0.60172165  0.39416899     0.06550
C70         C  0.37474737  0.57407193  0.37456022    -0.07540
H71         H  0.33461879  0.66467547  0.32979193     0.12140
H72         H  0.40983279  0.67235064  0.40531947     0.09670
H73         H  0.37612349  0.53509076  0.37717152     0.09520
C74         C  0.39886534  0.39248781  0.10514341     0.06560
C75         C  0.40161846  0.34250528  0.10441659    -0.09590
C76         C  0.38173972  0.31257435  0.12463228     0.04060
C77         C  0.35912685  0.33366871  0.14651975    -0.08120
C78         C  0.35650820  0.38405651  0.14749605     0.06550
C79         C  0.37635394  0.41338039  0.12659287    -0.07540
H80         H  0.41922457  0.32680201  0.08769325     0.12140
H81         H  0.34403930  0.31139703  0.16333500     0.09670
H82         H  0.37441717  0.45224765  0.12719883     0.09520
C83         C  0.14822203  0.59541327  0.35050979     0.06560
C84         C  0.14860722  0.64573595  0.34723328    -0.09590
C85         C  0.12824071  0.67341186  0.36736608     0.04060
C86         C  0.10684880  0.64973152  0.39050020    -0.08120
C87         C  0.10634782  0.59928834  0.39382586     0.06550
C88         C  0.12712600  0.57213160  0.37388544    -0.07540
H89         H  0.16502306  0.66345163  0.32909153     0.12140
H90         H  0.09013939  0.67001497  0.40539191     0.09670
H91         H  0.12676225  0.53313165  0.37638231     0.09520
O92         O  0.03306474  0.43036338  0.01142168    -0.71000
O93         O  0.47099079  0.49769254  0.45243457    -0.71030
O94         O  0.03259021  0.49212670  0.45129111    -0.71080
O95         O  0.47109504  0.43984780  0.01420265    -0.71130
O96         O  0.47145973  0.50424451  0.04855028    -0.71060
O97         O  0.03216264  0.55437551  0.48776203    -0.71040
O98         O  0.47117224  0.56213035  0.48673383    -0.71020
O99         O  0.03254636  0.49262823  0.04788669    -0.71080
Ni100      Ni  0.50182155  0.46561809  0.48181112     1.25410
Ni101      Ni  0.50214421  0.53460147  0.01870851     1.25360
C102        C  0.04288702  0.45137154  0.03952494     0.91180
C103        C  0.46088925  0.53944797  0.45970001     0.91110
C104        C  0.04236379  0.53328895  0.45968183     0.91140
C105        C  0.46120479  0.46298071  0.04141452     0.91310
O106        O  0.28294991  0.48271513  0.29903596    -0.71000
O107        O  0.22118555  0.42776645  0.24010426    -0.71030
O108        O  0.28277576  0.42556253  0.24035038    -0.71080
O109        O  0.22133103  0.48407276  0.29881061    -0.71130
O110        O  0.22154132  0.54955607  0.26069706    -0.71060
O111        O  0.28306087  0.49085798  0.20206892    -0.71040
O112        O  0.22145366  0.49326678  0.20200334    -0.71020
O113        O  0.28306932  0.54795630  0.26068335    -0.71080
Ni114      Ni  0.25208987  0.45266859  0.27093617     1.25410
Ni115      Ni  0.25233165  0.52274480  0.22999944     1.25360
C116        C  0.29282213  0.52467097  0.28962304     0.91180
C117        C  0.21122880  0.45165677  0.21147865     0.91110
C118        C  0.29275758  0.44837291  0.21149798     0.91140
C119        C  0.21139044  0.52630498  0.28930609     0.91310
C120        C  0.10681019  0.38367554  0.10592025     0.06560
C121        C  0.10739389  0.33321842  0.10917851    -0.09590
C122        C  0.12863566  0.30866886  0.13255932     0.04060
C123        C  0.14873931  0.33552391  0.15301052    -0.08120
C124        C  0.14824967  0.38586229  0.14978762     0.06550
C125        C  0.12732246  0.41000861  0.12616650    -0.07540
H126        H  0.09085793  0.31362267  0.09403390     0.12140
H127        H  0.16504400  0.31714907  0.17134185     0.09670
H128        H  0.12689008  0.44902767  0.12370457     0.09520
C129        C  0.18823860  0.43113308  0.18932767    -0.09840
C130        C  0.16951161  0.41214462  0.17089939    -0.11400
C131        C  0.08477310  0.40825671  0.08211906    -0.09840
C132        C  0.06586957  0.42804295  0.06240544    -0.11400
C133        C  0.08414775  0.57556429  0.41739090    -0.09840
C134        C  0.06521170  0.55631500  0.43692865    -0.11400
C135        C  0.16969405  0.56822549  0.32963254    -0.09840
C136        C  0.18846665  0.54823774  0.31136292    -0.11400
C137        C  0.31514079  0.42548077  0.18908298    -0.09840
C138        C  0.33380025  0.40600550  0.17023875    -0.11400
C139        C  0.41956740  0.42166042  0.08364203    -0.09840
C140        C  0.43821732  0.44194988  0.06458437    -0.11400
C141        C  0.41775014  0.57885980  0.41748133    -0.09840
C142        C  0.43739942  0.56106669  0.43697035    -0.11400
C143        C  0.31488391  0.54689891  0.31223405    -0.09840
C144        C  0.33256269  0.56856964  0.33042322    -0.11400
C145        C  0.11928169  0.75700183  0.38751278    -0.13000
C146        C  0.12963716  0.72672606  0.36246263    -0.28180
H147        H  0.10874413  0.74259759  0.41259875     0.16020
H148        H  0.14012649  0.74121709  0.33736777     0.16590
C149        C  0.18431644  0.92773595  0.31423741    -0.09840
C150        C  0.16554085  0.90799275  0.33353138    -0.11400
C151        C  0.38009676  0.75902071  0.38763765    -0.13000
C152        C  0.36921257  0.72872522  0.36305926    -0.28180
H153        H  0.39128951  0.74461783  0.41242549     0.16020
H154        H  0.35802172  0.74313168  0.33827093     0.16590
C155        C  0.31202398  0.92666295  0.31356119    -0.09840
C156        C  0.33163986  0.90889037  0.33311375    -0.11560
C157        C  0.12000262  0.22551840  0.11215988    -0.13000
C158        C  0.13012451  0.25529329  0.13738349    -0.28180
H159        H  0.10965402  0.24040815  0.08696056     0.16020
H160        H  0.14042986  0.24028767  0.16258322     0.16590
C161        C  0.18455776  0.05136442  0.18562568    -0.09840
C162        C  0.16588243  0.07222274  0.16631269    -0.11400
C163        C  0.43464909  0.94080744  0.43820783    -0.09840
C164        C  0.41690891  0.91915744  0.42008555    -0.11400
C165        C  0.06111401  0.04830882  0.06288155    -0.09840
C166        C  0.07972489  0.06823833  0.08075094    -0.11400
C167        C  0.06121918  0.93692070  0.43734361    -0.09840
C168        C  0.07966648  0.91629886  0.41921779    -0.11400
C169        C  0.38621847  0.25973721  0.12260292    -0.13000
C170        C  0.36382378  0.22792695  0.12815448    -0.28180
H171        H  0.40872143  0.24695547  0.11522664     0.16020
H172        H  0.34132050  0.24071038  0.13552739     0.16590
C173        C  0.33035266  0.06601144  0.16692588    -0.09840
C174        C  0.31164886  0.04572941  0.18590430    -0.11400
C175        C  0.43473414  0.06217936  0.06144381    -0.09840
C176        C  0.41612705  0.08165972  0.08035527    -0.11400
C177        C  0.35111607  0.09510389  0.64548785     0.06560
C178        C  0.37360401  0.07421447  0.62400464    -0.09590
C179        C  0.39346839  0.10354081  0.60313327     0.04060
C180        C  0.39089310  0.15392742  0.60417567    -0.08120
C181        C  0.36829993  0.17501647  0.62609415     0.06550
C182        C  0.34840467  0.14508407  0.64628183    -0.07540
H183        H  0.37550074  0.03534873  0.62333704     0.12140
H184        H  0.40598939  0.17620425  0.58737655     0.09670
H185        H  0.33080814  0.16078406  0.66302122     0.09520
O186        O  0.46659970  0.93974157  0.98967712    -0.71000
O187        O  0.02887437  0.98538928  0.54869626    -0.71030
O188        O  0.46678673  0.99677724  0.54825863    -0.71080
O189        O  0.02893693  0.93264921  0.98817595    -0.71130
O190        O  0.02832487  0.00008694  0.95210753    -0.71060
O191        O  0.46694303  0.06210080  0.51000156    -0.71040
O192        O  0.02807444  0.05284453  0.51265930    -0.71020
O193        O  0.46658771  0.00499603  0.95133574    -0.71080
Ni194      Ni  0.49744670  0.96494814  0.52018536     1.25410
Ni195      Ni  0.49752866  0.03505987  0.97930135     1.25360
C196        C  0.45674902  0.96303161  0.96078762     0.91180
C197        C  0.03842496  0.02782122  0.54045558     0.91110
C198        C  0.45705355  0.03926070  0.53888889     0.91140
C199        C  0.03858706  0.95761329  0.96020670     0.91310
C200        C  0.10126090  0.09490763  0.60095532     0.06560
C201        C  0.12262523  0.07086608  0.62386768    -0.09590
C202        C  0.14363897  0.09716930  0.64322063     0.04060
C203        C  0.14314835  0.14763536  0.63987347    -0.08120
C204        C  0.12143615  0.17214791  0.61711489     0.06550
C205        C  0.10079400  0.14523940  0.59745621    -0.07540
H206        H  0.12301161  0.03184289  0.62646461     0.12140
H207        H  0.16005698  0.16725839  0.65441698     0.09670
H208        H  0.08412665  0.16352811  0.57957661     0.09520
C209        C  0.35443833  0.88603171  0.85651495     0.06560
C210        C  0.37462364  0.91367388  0.87608894    -0.09590
C211        C  0.39631168  0.89092927  0.89939584     0.04060
C212        C  0.39788533  0.84047611  0.90277589    -0.08120
C213        C  0.37795494  0.81239536  0.88284653     0.06550
C214        C  0.35596491  0.83576625  0.85999282    -0.07540
H215        H  0.37327898  0.95265505  0.87344171     0.12140
H216        H  0.41472784  0.82305054  0.92087047     0.09670
H217        H  0.33946200  0.81540830  0.84541728     0.09520
O218        O  0.21682638  0.98579067  0.70180687    -0.71000
O219        O  0.27839584  0.92554473  0.76367078    -0.71030
O220        O  0.21683770  0.92704644  0.76357382    -0.71080
O221        O  0.27835947  0.98340411  0.70179172    -0.71130
O222        O  0.27861540  0.04783169  0.73611101    -0.71060
O223        O  0.21693892  0.99130025  0.79806078    -0.71040
O224        O  0.27846723  0.99003156  0.79792062    -0.71020
O225        O  0.21714323  0.05001263  0.73631374    -0.71080
Ni226      Ni  0.24755780  0.95310676  0.73147841     1.25410
Ni227      Ni  0.24776578  0.02210834  0.76834119     1.25360
C228        C  0.20710016  0.02792568  0.70892532     0.91180
C229        C  0.28858638  0.94825572  0.79074155     0.91110
C230        C  0.20695076  0.94976569  0.79093728     0.91140
C231        C  0.28859777  0.02466472  0.70896369     0.91310
C232        C  0.10094583  0.88853733  0.89885265     0.06560
C233        C  0.12232704  0.91154178  0.87594734    -0.09590
C234        C  0.14320277  0.88420230  0.85653913     0.04060
C235        C  0.14257270  0.83377459  0.85982010    -0.08120
C236        C  0.12081812  0.81030341  0.88255477     0.06550
C237        C  0.10029020  0.83822667  0.90226649    -0.07540
H238        H  0.12285428  0.95054715  0.87342993     0.12140
H239        H  0.15943075  0.81337096  0.84525276     0.09670
H240        H  0.08360266  0.82076500  0.92016564     0.09520
C241        C  0.35310096  0.59682348  0.85117596     0.06560
C242        C  0.35148579  0.64727648  0.84784286    -0.09590
C243        C  0.37138034  0.67536446  0.86781717     0.04060
C244        C  0.39337123  0.65199999  0.89067426    -0.08120
C245        C  0.39493628  0.60173413  0.89410301     0.06550
C246        C  0.37478957  0.57408612  0.87448212    -0.07540
H247        H  0.33464671  0.66469526  0.82973989     0.12140
H248        H  0.40985245  0.67236227  0.90528006     0.09670
H249        H  0.37617123  0.53510486  0.87708365     0.09520
C250        C  0.39888636  0.39240759  0.60514890     0.06560
C251        C  0.40163872  0.34242480  0.60442622    -0.09590
C252        C  0.38175351  0.31249740  0.62463512     0.04060
C253        C  0.35913488  0.33359584  0.64651234    -0.08120
C254        C  0.35651706  0.38398439  0.64748461     0.06550
C255        C  0.37636934  0.41330417  0.62658775    -0.07540
H256        H  0.41924876  0.32671858  0.58771031     0.12140
H257        H  0.34404194  0.31132707  0.66332228     0.09670
H258        H  0.37443300  0.45217181  0.62719010     0.09520
C259        C  0.14826290  0.59544317  0.85049173     0.06560
C260        C  0.14863968  0.64576665  0.84721875    -0.09590
C261        C  0.12826697  0.67343184  0.86735195     0.04060
C262        C  0.10687843  0.64973957  0.89048360    -0.08120
C263        C  0.10638620  0.59929603  0.89380654     0.06550
C264        C  0.12717002  0.57215020  0.87386557    -0.07540
H265        H  0.16505255  0.66349126  0.82907797     0.12140
H266        H  0.09016408  0.67001370  0.90537485     0.09670
H267        H  0.12681212  0.53314987  0.87635928     0.09520
O268        O  0.03304971  0.43033498  0.51143244    -0.71000
O269        O  0.47100163  0.49770468  0.95241725    -0.71030
O270        O  0.03261774  0.49213836  0.95127099    -0.71080
O271        O  0.47111077  0.43980429  0.51420375    -0.71130
O272        O  0.47147460  0.50418314  0.54857028    -0.71060
O273        O  0.03219558  0.55439809  0.98773125    -0.71040
O274        O  0.47118339  0.56216092  0.98669706    -0.71020
O275        O  0.03252530  0.49258879  0.54790801    -0.71080
Ni276      Ni  0.50181866  0.46563229  0.98181524     1.25410
Ni277      Ni  0.50214623  0.53456802  0.51872451     1.25360
C278        C  0.04287137  0.45133854  0.53953846     0.91180
C279        C  0.46090484  0.53946860  0.95966580     0.91110
C280        C  0.04239624  0.53330006  0.95965613     0.91140
C281        C  0.46122357  0.46291978  0.54142607     0.91310
O282        O  0.28298028  0.48272543  0.79899349    -0.71000
O283        O  0.22119527  0.42775817  0.74010044    -0.71030
O284        O  0.28278619  0.42553990  0.74032741    -0.71080
O285        O  0.22136128  0.48409644  0.79878940    -0.71130
O286        O  0.22156894  0.54956155  0.76065711    -0.71060
O287        O  0.28306929  0.49081619  0.70202636    -0.71040
O288        O  0.22146149  0.49324017  0.70198077    -0.71020
O289        O  0.28309729  0.54794761  0.76062156    -0.71080
Ni290      Ni  0.25211005  0.45267005  0.77091416     1.25410
Ni291      Ni  0.25234942  0.52272610  0.72995695     1.25360
C292        C  0.29285460  0.52467512  0.78956467     0.91180
C293        C  0.21123446  0.45163637  0.71147107     0.91110
C294        C  0.29276452  0.44833340  0.71146577     0.91140
C295        C  0.21142286  0.52632717  0.78927657     0.91310
C296        C  0.10680674  0.38365001  0.60592349     0.06560
C297        C  0.10739410  0.33319256  0.60917618    -0.09590
C298        C  0.12863735  0.30864189  0.63255438     0.04060
C299        C  0.14873938  0.33549649  0.65300870    -0.08120
C300        C  0.14824656  0.38583536  0.64979211     0.06550
C301        C  0.12731738  0.40998258  0.62617331    -0.07540
H302        H  0.09085946  0.31359746  0.59402916     0.12140
H303        H  0.16504544  0.31712084  0.67133771     0.09670
H304        H  0.12688241  0.44900176  0.62371567     0.09520
C305        C  0.18823825  0.43110586  0.68933120    -0.09840
C306        C  0.16950880  0.41211670  0.67090590    -0.11400
C307        C  0.08476685  0.40823067  0.58212467    -0.09840
C308        C  0.06585943  0.42801281  0.56241360    -0.11400
C309        C  0.08418710  0.57556179  0.91736726    -0.09840
C310        C  0.06524886  0.55631374  0.93690262    -0.11400
C311        C  0.16973693  0.56826502  0.82960923    -0.09840
C312        C  0.18850633  0.54827546  0.81133570    -0.11400
C313        C  0.31514390  0.42542560  0.68905425    -0.09840
C314        C  0.33380403  0.40593966  0.67021711    -0.11400
C315        C  0.41959278  0.42157729  0.58365162    -0.09840
C316        C  0.43824208  0.44187199  0.56459621    -0.11400
C317        C  0.41778149  0.57887265  0.91742002    -0.09840
C318        C  0.43742484  0.56108428  0.93692000    -0.11400
C319        C  0.31492275  0.54691181  0.81216251    -0.09840
C320        C  0.33260370  0.56858695  0.83034610    -0.11400
C321        C  0.11928375  0.75701809  0.88749686    -0.13000
C322        C  0.12965207  0.72674749  0.86244983    -0.28180
H323        H  0.10874449  0.74260806  0.91257986     0.16020
H324        H  0.14014309  0.74124400  0.83735788     0.16590
C325        C  0.18429775  0.92777286  0.81423494    -0.09840
C326        C  0.16551999  0.90803171  0.83352644    -0.11400
C327        C  0.38009119  0.75901996  0.88764188    -0.13000
C328        C  0.36922360  0.72874046  0.86304081    -0.28180
H329        H  0.39127917  0.74460272  0.91242862     0.16020
H330        H  0.35803726  0.74316092  0.83825367     0.16590
C331        C  0.31200310  0.92665958  0.81360013    -0.09840
C332        C  0.33161397  0.90889307  0.83316281    -0.11560
C333        C  0.12000195  0.22549087  0.61215238    -0.13000
C334        C  0.13012964  0.25526541  0.63737333    -0.28180
H335        H  0.10964521  0.24038037  0.58695805     0.16020
H336        H  0.14044197  0.24025822  0.66256835     0.16590
C337        C  0.18457850  0.05133950  0.68559544    -0.09840
C338        C  0.16590389  0.07219963  0.66628328    -0.11400
C339        C  0.43460955  0.94080560  0.93827773    -0.09840
C340        C  0.41686823  0.91915315  0.92015830    -0.11400
C341        C  0.06111678  0.04825875  0.56289628    -0.09840
C342        C  0.07972675  0.06819915  0.58075912    -0.11400
C343        C  0.06120627  0.93692615  0.93734750    -0.09840
C344        C  0.07964997  0.91629975  0.91921977    -0.11400
C345        C  0.38623081  0.25965980  0.62260719    -0.13000
C346        C  0.36383449  0.22785116  0.62815217    -0.28180
H347        H  0.40873437  0.24687559  0.61523539     0.16020
H348        H  0.34133052  0.24063444  0.63552222     0.16590
C349        C  0.33037125  0.06593219  0.66692080    -0.09840
C350        C  0.31166699  0.04565800  0.68590310    -0.11400
C351        C  0.43473675  0.06212287  0.56141059    -0.09840
C352        C  0.41612975  0.08159487  0.58032709    -0.11400
C353        C  0.85304678  0.10289151  0.14593288     0.06560
C354        C  0.87324326  0.07429916  0.12641968    -0.09590
C355        C  0.89482382  0.09600067  0.10298256     0.04060
C356        C  0.89636485  0.14611399  0.09906298    -0.08120
C357        C  0.87666393  0.17530626  0.11873299     0.06550
C358        C  0.85471082  0.15332374  0.14214072    -0.07540
H359        H  0.87202596  0.03537118  0.12925284     0.12140
H360        H  0.91318752  0.16248864  0.08075297     0.09670
H361        H  0.83851607  0.17492010  0.15676673     0.09520
O362        O  0.96754411  0.93268802  0.48842340    -0.71000
O363        O  0.52838341  0.99447100  0.04809368    -0.71030
O364        O  0.96733979  0.98518351  0.04909573    -0.71080
O365        O  0.52816060  0.93819910  0.48934760    -0.71130
O366        O  0.52824042  0.00371191  0.45126092    -0.71060
O367        O  0.96662228  0.05274222  0.01316746    -0.71040
O368        O  0.52851919  0.05998286  0.01000126    -0.71020
O369        O  0.96682549  0.00024274  0.45249802    -0.71080
Ni370      Ni  0.99819876  0.95657145  0.01988419     1.25410
Ni371      Ni  0.99743911  0.02891221  0.48133907     1.25360
C372        C  0.95725011  0.95783578  0.46061902     0.91180
C373        C  0.53856391  0.03609949  0.03858476     0.91110
C374        C  0.95694875  0.02754375  0.04105487     0.91140
C375        C  0.53822361  0.96148593  0.46070689     0.91310
C376        C  0.60166221  0.10197350  0.10006647     0.06560
C377        C  0.62257871  0.07783609  0.12370760    -0.09590
C378        C  0.64313323  0.10417319  0.14389016     0.04060
C379        C  0.64260535  0.15462495  0.14054848    -0.08120
C380        C  0.62137332  0.17917233  0.11715392     0.06550
C381        C  0.60122442  0.15231100  0.09676601    -0.07540
H382        H  0.62296822  0.03881983  0.12623686     0.12140
H383        H  0.65917390  0.17421303  0.15564777     0.09670
H384        H  0.58492427  0.17068039  0.07842588     0.09520
C385        C  0.85366324  0.88634812  0.35574273     0.06560
C386        C  0.87398813  0.91368766  0.37537441    -0.09590
C387        C  0.89551469  0.89064603  0.39869206     0.04060
C388        C  0.89687042  0.84038943  0.40228644    -0.08120
C389        C  0.87697836  0.81245899  0.38245794     0.06550
C390        C  0.85508655  0.83587275  0.35926683    -0.07540
H391        H  0.87289554  0.95268635  0.37274686     0.12140
H392        H  0.91364220  0.82292949  0.42048454     0.09670
H393        H  0.83871275  0.81538601  0.34457630     0.09520
O394        O  0.71735530  0.99530497  0.20211634    -0.71000
O395        O  0.77917429  0.93325858  0.26240519    -0.71030
O396        O  0.71752591  0.93348291  0.26223895    -0.71080
O397        O  0.77899079  0.99545819  0.20245580    -0.71130
O398        O  0.77830437  0.05754692  0.23908180    -0.71060
O399        O  0.71695069  0.99570780  0.29873311    -0.71040
O400        O  0.77860132  0.99536394  0.29902504    -0.71020
O401        O  0.71668240  0.05753493  0.23861509    -0.71080
Ni402      Ni  0.74829045  0.96214331  0.23099320     1.25410
Ni403      Ni  0.74761620  0.02875876  0.27017942     1.25360
C404        C  0.70696179  0.03653860  0.21045496     0.91180
C405        C  0.78893557  0.95409053  0.29057937     0.91110
C406        C  0.70722134  0.95454455  0.29027824     0.91140
C407        C  0.78860398  0.03671662  0.21098096     0.91310
C408        C  0.60123464  0.89243651  0.39924679     0.06560
C409        C  0.62235407  0.91569776  0.37589155    -0.09590
C410        C  0.64308533  0.88851940  0.35589915     0.04060
C411        C  0.64251117  0.83807423  0.35915236    -0.08120
C412        C  0.62109800  0.81441911  0.38227270     0.06550
C413        C  0.60077909  0.84211556  0.40245287    -0.07540
H414        H  0.62277796  0.95469758  0.37345856     0.12140
H415        H  0.65918733  0.81776649  0.34422802     0.09670
H416        H  0.58435136  0.82441703  0.42058809     0.09520
C417        C  0.85378951  0.59717040  0.35204954     0.06560
C418        C  0.85238775  0.64742751  0.34851800    -0.09590
C419        C  0.87227784  0.67536043  0.36834600     0.04060
C420        C  0.89420939  0.65195305  0.39148301    -0.08120
C421        C  0.89568289  0.60147583  0.39494412     0.06550
C422        C  0.87536083  0.57413063  0.37530886    -0.07540
H423        H  0.83559207  0.66488658  0.33035245     0.12140
H424        H  0.91058370  0.67245035  0.40616467     0.09670
H425        H  0.87649895  0.53513147  0.37787544     0.09520
C426        C  0.89697014  0.38517272  0.10472707     0.06560
C427        C  0.89534198  0.33474279  0.10858357    -0.09590
C428        C  0.87340432  0.31276916  0.13201785     0.04060
C429        C  0.85369048  0.34197268  0.15166059    -0.08120
C430        C  0.85519836  0.39208593  0.14767647     0.06550
C431        C  0.87675939  0.41377605  0.12420775    -0.07540
H432        H  0.91154489  0.31314355  0.09397261     0.12140
H433        H  0.83687396  0.32560736  0.16998384     0.09670
H434        H  0.87794225  0.45270388  0.12131330     0.09520
C435        C  0.64828781  0.59929526  0.35079595     0.06560
C436        C  0.64892585  0.64960287  0.34732577    -0.09590
C437        C  0.62840418  0.67754769  0.36702641     0.04060
C438        C  0.60666472  0.65410055  0.38979941    -0.08120
C439        C  0.60605010  0.60367343  0.39313495     0.06550
C440        C  0.62692420  0.57631328  0.37373978    -0.07540
H441        H  0.66560899  0.66704645  0.32940993     0.12140
H442        H  0.58981721  0.67452246  0.40436920     0.09670
H443        H  0.62642029  0.53730929  0.37631326     0.09520
O444        O  0.53256896  0.43773576  0.01366190    -0.71000
O445        O  0.97093594  0.49249991  0.45131698    -0.71030
O446        O  0.53251526  0.49651108  0.45193095    -0.71080
O447        O  0.97144501  0.43040545  0.01126533    -0.71130
O448        O  0.97091269  0.49253072  0.04785708    -0.71060
O449        O  0.53272665  0.56071712  0.48646478    -0.71040
O450        O  0.97051097  0.55462988  0.48791223    -0.71020
O451        O  0.53299461  0.50192903  0.04819521    -0.71080
Ni452      Ni  0.00201500  0.45910929  0.48001470     1.25410
Ni453      Ni  0.00152691  0.52579265  0.01914625     1.25360
C454        C  0.54271052  0.45981582  0.04100125     0.91180
C455        C  0.96063902  0.53378001  0.45980167     0.91110
C456        C  0.54251313  0.53805040  0.45902429     0.91140
C457        C  0.96125318  0.45127107  0.03940451     0.91310
O458        O  0.78260991  0.48764276  0.29787458    -0.71000
O459        O  0.72165292  0.43508353  0.23726758    -0.71030
O460        O  0.78310153  0.43528282  0.23713854    -0.71080
O461        O  0.72110590  0.48779950  0.29784585    -0.71130
O462        O  0.72062218  0.55528488  0.26183175    -0.71060
O463        O  0.78251306  0.50288911  0.20126365    -0.71040
O464        O  0.72099197  0.50257130  0.20126708    -0.71020
O465        O  0.78203200  0.55523280  0.26198977    -0.71080
Ni466      Ni  0.75213527  0.45899566  0.26881009     1.25410
Ni467      Ni  0.75151287  0.53143329  0.23030180     1.25360
C468        C  0.79221366  0.53005604  0.28984193     0.91180
C469        C  0.71142321  0.46012409  0.20941368     0.91110
C470        C  0.79288386  0.46052464  0.20933291     0.91140
C471        C  0.71085844  0.53027340  0.28971578     0.91310
C472        C  0.60642415  0.39065651  0.10637926     0.06560
C473        C  0.60695414  0.34019106  0.10970471    -0.09590
C474        C  0.62870099  0.31570241  0.13242638     0.04060
C475        C  0.64934486  0.34263823  0.15206395    -0.08120
C476        C  0.64883447  0.39297328  0.14859224     0.06550
C477        C  0.62743399  0.41698794  0.12571525    -0.07540
H478        H  0.59003604  0.32055232  0.09519002     0.12140
H479        H  0.66602951  0.32437021  0.16993080     0.09670
H480        H  0.62700248  0.45601261  0.12315326     0.09520
C481        C  0.68884689  0.43968490  0.18680551    -0.09840
C482        C  0.67031518  0.41971703  0.16884431    -0.11400
C483        C  0.58408904  0.41559505  0.08340302    -0.09840
C484        C  0.56533506  0.43642339  0.06418980    -0.11400
C485        C  0.58377937  0.57986103  0.41622945    -0.09840
C486        C  0.56506666  0.56010182  0.43560867    -0.11400
C487        C  0.66962052  0.57151814  0.33049467    -0.09840
C488        C  0.68813089  0.55091113  0.31244933    -0.11400
C489        C  0.81580814  0.44050367  0.18653809    -0.09840
C490        C  0.83437933  0.42062750  0.16810199    -0.11400
C491        C  0.91964662  0.40782582  0.08126284    -0.09840
C492        C  0.93857245  0.42767592  0.06206804    -0.11400
C493        C  0.91842485  0.57761695  0.41812690    -0.09840
C494        C  0.93759175  0.55742136  0.43720752    -0.11400
C495        C  0.81471634  0.55019356  0.31272627    -0.09840
C496        C  0.83300632  0.56976918  0.33129408    -0.11400
C497        C  0.61964848  0.76110770  0.38714439    -0.13000
C498        C  0.62995740  0.73082977  0.36207147    -0.28180
H499        H  0.60917296  0.74661986  0.41224912     0.16020
H500        H  0.64048396  0.74523006  0.33697683     0.16590
C501        C  0.68431011  0.93148617  0.31291763    -0.09840
C502        C  0.66532958  0.91222606  0.33238481    -0.11400
C503        C  0.87938825  0.75921883  0.38785701    -0.13000
C504        C  0.86984850  0.72859908  0.36296496    -0.28180
H505        H  0.88999327  0.74508176  0.41313456     0.16020
H506        H  0.85924389  0.74273280  0.33768675     0.16590
C507        C  0.81189555  0.93043199  0.31329268    -0.09840
C508        C  0.83099119  0.91021673  0.33246666    -0.11560
C509        C  0.61992807  0.23254788  0.11226770    -0.13000
C510        C  0.63013773  0.26236011  0.13741759    -0.28180
H511        H  0.60957090  0.24752194  0.08709018     0.16020
H512        H  0.64053866  0.24750467  0.16259460     0.16590
C513        C  0.68402622  0.05984450  0.18749218    -0.09840
C514        C  0.66514806  0.07960467  0.16772834    -0.11400
C515        C  0.93466303  0.93766130  0.43787791    -0.09840
C516        C  0.91632840  0.91805312  0.41939601    -0.11400
C517        C  0.56159849  0.05665902  0.06065439    -0.09840
C518        C  0.58035671  0.07567878  0.07902075    -0.11400
C519        C  0.56109511  0.93960125  0.43854691    -0.09840
C520        C  0.57982239  0.91963693  0.42019820    -0.11400
C521        C  0.87065349  0.25974516  0.13784983    -0.13000
C522        C  0.87942453  0.22833007  0.11292077    -0.28180
H523        H  0.86031690  0.24646829  0.16341068     0.16020
H524        H  0.88975751  0.24160885  0.08735849     0.16590
C525        C  0.83032679  0.08022466  0.16932996    -0.09840
C526        C  0.81135268  0.06035171  0.18844085    -0.11400
C527        C  0.93411757  0.04759909  0.06396699    -0.09840
C528        C  0.91560246  0.06747327  0.08248522    -0.11400
C529        C  0.85304896  0.10279379  0.64596506     0.06560
C530        C  0.87324502  0.07419679  0.62645496    -0.09590
C531        C  0.89482968  0.09589407  0.60302113     0.04060
C532        C  0.89637527  0.14600705  0.59910216    -0.08120
C533        C  0.87667486  0.17520322  0.61876925     0.06550
C534        C  0.85471768  0.15322533  0.64217331    -0.07540
H535        H  0.87202387  0.03526917  0.62928736     0.12140
H536        H  0.91320070  0.16237843  0.58079434     0.09670
H537        H  0.83852289  0.17482515  0.65679638     0.09520
O538        O  0.96753173  0.93274396  0.98842039    -0.71000
O539        O  0.52839160  0.99444298  0.54807016    -0.71030
O540        O  0.96735192  0.98510019  0.54911227    -0.71080
O541        O  0.52813134  0.93819820  0.98938683    -0.71130
O542        O  0.52820924  0.00369471  0.95128335    -0.71060
O543        O  0.96662241  0.05267211  0.51319911    -0.71040
O544        O  0.52852891  0.05997123  0.50999452    -0.71020
O545        O  0.96682395  0.00028465  0.95247906    -0.71080
Ni546      Ni  0.99821176  0.95651151  0.51988919     1.25410
Ni547      Ni  0.99743879  0.02895817  0.98131821     1.25360
C548        C  0.95724447  0.95788151  0.96060746     0.91180
C549        C  0.53856957  0.03607749  0.53857515     0.91110
C550        C  0.95695454  0.02745931  0.54108234     0.91140
C551        C  0.53818958  0.96146929  0.96073627     0.91310
C552        C  0.60165795  0.10194429  0.60007172     0.06560
C553        C  0.62257123  0.07780644  0.62371618    -0.09590
C554        C  0.64312745  0.10414285  0.64389607     0.04060
C555        C  0.64260457  0.15459416  0.64054875    -0.08120
C556        C  0.62137537  0.17914178  0.61715067     0.06550
C557        C  0.60122464  0.15228130  0.59676509    -0.07540
H558        H  0.62295731  0.03879032  0.62624958     0.12140
H559        H  0.65917469  0.17418164  0.65564616     0.09670
H560        H  0.58492693  0.17065090  0.57842180     0.09520
C561        C  0.85365228  0.88634770  0.85576135     0.06560
C562        C  0.87398122  0.91369230  0.87538235    -0.09590
C563        C  0.89551869  0.89065618  0.89868751     0.04060
C564        C  0.89688165  0.84039868  0.90227808    -0.08120
C565        C  0.87698398  0.81246346  0.88245981     0.06550
C566        C  0.85508118  0.83587346  0.85928302    -0.07540
H567        H  0.87288270  0.95269086  0.87275717     0.12140
H568        H  0.91366151  0.82294236  0.92046675     0.09670
H569        H  0.83870253  0.81538519  0.84460158     0.09520
O570        O  0.71733354  0.99526492  0.70214184    -0.71000
O571        O  0.77914168  0.93322135  0.76244737    -0.71030
O572        O  0.71749291  0.93346249  0.76227493    -0.71080
O573        O  0.77896914  0.99539883  0.70248757    -0.71130
O574        O  0.77828749  0.05750097  0.73910073    -0.71060
O575        O  0.71692210  0.99569986  0.79875702    -0.71040
O576        O  0.77857319  0.99534022  0.79905442    -0.71020
O577        O  0.71666553  0.05750751  0.73862854    -0.71080
Ni578      Ni  0.74826282  0.96210339  0.73102759     1.25410
Ni579      Ni  0.74759357  0.02873292  0.77020049     1.25360
C580        C  0.70694452  0.03650471  0.71047189     0.91180
C581        C  0.78890500  0.95406269  0.79061611     0.91110
C582        C  0.70718839  0.95453659  0.79030841     0.91140
C583        C  0.78858745  0.03665666  0.71100635     0.91310
C584        C  0.60119115  0.89240994  0.89926519     0.06560
C585        C  0.62230803  0.91568290  0.87591297    -0.09590
C586        C  0.64304562  0.88851585  0.85592092     0.04060
C587        C  0.64248053  0.83807044  0.85917096    -0.08120
C588        C  0.62107014  0.81440282  0.88228746     0.06550
C589        C  0.60074412  0.84208803  0.90246736    -0.07540
H590        H  0.62272601  0.95468314  0.87348344     0.12140
H591        H  0.65916239  0.81777254  0.84424782     0.09670
H592        H  0.58431894  0.82438014  0.92060074     0.09520
C593        C  0.85378563  0.59716622  0.85205750     0.06560
C594        C  0.85237568  0.64742423  0.84853193    -0.09590
C595        C  0.87226983  0.67536156  0.86835217     0.04060
C596        C  0.89421173  0.65195761  0.89147551    -0.08120
C597        C  0.89569191  0.60148147  0.89493211     0.06550
C598        C  0.87536736  0.57413149  0.87530487    -0.07540
H599        H  0.83557244  0.66488002  0.83037528     0.12140
H600        H  0.91058976  0.67245625  0.90614998     0.09670
H601        H  0.87651228  0.53513247  0.87786735     0.09520
C602        C  0.89697487  0.38507352  0.60475764     0.06560
C603        C  0.89535049  0.33464304  0.60861491    -0.09590
C604        C  0.87341726  0.31266614  0.63205407     0.04060
C605        C  0.85370421  0.34186691  0.65170053    -0.08120
C606        C  0.85520842  0.39198037  0.64771537     0.06550
C607        C  0.87676497  0.41367339  0.62424217    -0.07540
H608        H  0.91155240  0.31304629  0.59400034     0.12140
H609        H  0.83689070  0.32549934  0.67002684     0.09670
H610        H  0.87794464  0.45260147  0.62134658     0.09520
C611        C  0.64830672  0.59929205  0.85079653     0.06560
C612        C  0.64893755  0.64960068  0.84733190    -0.09590
C613        C  0.62841315  0.67753439  0.86703833     0.04060
C614        C  0.60667953  0.65407452  0.88981197    -0.08120
C615        C  0.60607302  0.60364717  0.89314289     0.06550
C616        C  0.62694903  0.57629824  0.87374196    -0.07540
H617        H  0.66561597  0.66705349  0.82941459     0.12140
H618        H  0.58982914  0.67448617  0.90438521     0.09670
H619        H  0.62645032  0.53729373  0.87631096     0.09520
O620        O  0.53258542  0.43771892  0.51363870    -0.71000
O621        O  0.97096279  0.49252903  0.95129194    -0.71030
O622        O  0.53252565  0.49649770  0.95193954    -0.71080
O623        O  0.97142992  0.43035602  0.51128114    -0.71130
O624        O  0.97089177  0.49246934  0.54788436    -0.71060
O625        O  0.53273761  0.56072149  0.98645479    -0.71040
O626        O  0.97054324  0.55467113  0.98787564    -0.71020
O627        O  0.53300965  0.50189493  0.54819004    -0.71080
Ni628      Ni  0.00203616  0.45913864  0.97999706     1.25410
Ni629      Ni  0.00149966  0.52575085  0.51917575     1.25360
C630        C  0.54273030  0.45978969  0.54098124     0.91180
C631        C  0.96066861  0.53381298  0.95977030     0.91110
C632        C  0.54252807  0.53803682  0.95902537     0.91140
C633        C  0.96123808  0.45120833  0.53942624     0.91310
O634        O  0.78261405  0.48760862  0.79789216    -0.71000
O635        O  0.72165712  0.43503950  0.73728615    -0.71030
O636        O  0.78310655  0.43521806  0.73717011    -0.71080
O637        O  0.72111040  0.48778231  0.79785154    -0.71130
O638        O  0.72063871  0.55525368  0.76182157    -0.71060
O639        O  0.78253066  0.50280982  0.70127865    -0.71040
O640        O  0.72100945  0.50251371  0.70127032    -0.71020
O641        O  0.78204772  0.55518344  0.76199008    -0.71080
Ni642      Ni  0.75213934  0.45895585  0.76882897     1.25410
Ni643      Ni  0.75153024  0.53137800  0.73030321     1.25360
C644        C  0.79222203  0.53001786  0.78985164     0.91180
C645        C  0.71143389  0.46007276  0.70942462     0.91110
C646        C  0.79289507  0.46044457  0.70936009     0.91140
C647        C  0.71086985  0.53025729  0.78971059     0.91310
C648        C  0.60644821  0.39062837  0.60635479     0.06560
C649        C  0.60697318  0.34016301  0.60968263    -0.09590
C650        C  0.62871143  0.31567096  0.63241454     0.04060
C651        C  0.64935213  0.34260274  0.65205967    -0.08120
C652        C  0.64884737  0.39293744  0.64858634     0.06550
C653        C  0.62745522  0.41695620  0.62569904    -0.07540
H654        H  0.59005707  0.32052706  0.59516244     0.12140
H655        H  0.66603000  0.32433151  0.66993428     0.09670
H656        H  0.62702741  0.45598078  0.62313620     0.09520
C657        C  0.68885739  0.43963420  0.68681536    -0.09840
C658        C  0.67032588  0.41967472  0.66884767    -0.11400
C659        C  0.58411771  0.41556908  0.58337198    -0.09840
C660        C  0.56536221  0.43639550  0.56415914    -0.11400
C661        C  0.58380544  0.57982477  0.91623546    -0.09840
C662        C  0.56508998  0.56006968  0.93561265    -0.11400
C663        C  0.66963870  0.57152426  0.83048672    -0.09840
C664        C  0.68814559  0.55091312  0.81243910    -0.11400
C665        C  0.81581881  0.44040534  0.68657381    -0.09840
C666        C  0.83438917  0.42052077  0.66814174    -0.11400
C667        C  0.91964562  0.40773275  0.58128816    -0.09840
C668        C  0.93856486  0.42759549  0.56209086    -0.11400
C669        C  0.91844392  0.57763023  0.91810278    -0.09840
C670        C  0.93761819  0.55744557  0.93717764    -0.11400
C671        C  0.81471947  0.55016671  0.81273819    -0.09840
C672        C  0.83300422  0.56975677  0.83130473    -0.11400
C673        C  0.61963274  0.76108989  0.88715704    -0.13000
C674        C  0.62995536  0.73081824  0.86208677    -0.28180
H675        H  0.60915572  0.74659580  0.91225871     0.16020
H676        H  0.64048321  0.74522556  0.83699521     0.16590
C677        C  0.68427239  0.93149127  0.81294791    -0.09840
C678        C  0.66528934  0.91223286  0.83241214    -0.11400
C679        C  0.87939784  0.75922263  0.88785538    -0.13000
C680        C  0.86983603  0.72860095  0.86297556    -0.28180
H681        H  0.89002196  0.74508746  0.91312136     0.16020
H682        H  0.85921250  0.74273305  0.83770889     0.16590
C683        C  0.81186760  0.93041347  0.81332893    -0.09840
C684        C  0.83097017  0.91020865  0.83249749    -0.11560
C685        C  0.61993556  0.23251645  0.61225855    -0.13000
C686        C  0.63014183  0.26232915  0.63740976    -0.28180
H687        H  0.60958516  0.24748904  0.58707646     0.16020
H688        H  0.64053508  0.24747372  0.66259155     0.16590
C689        C  0.68401360  0.05981078  0.68750369    -0.09840
C690        C  0.66513888  0.07957324  0.66773701    -0.11400
C691        C  0.93466206  0.93769620  0.93786481    -0.09840
C692        C  0.91633199  0.91807239  0.91938598    -0.11400
C693        C  0.56159769  0.05663163  0.56065592    -0.09840
C694        C  0.58035305  0.07565004  0.57902637    -0.11400
C695        C  0.56105303  0.93956866  0.93857331    -0.09840
C696        C  0.57977665  0.91960096  0.92022115    -0.11400
C697        C  0.87066874  0.25964181  0.63788632    -0.13000
C698        C  0.87943877  0.22822648  0.61295697    -0.28180
H699        H  0.86033315  0.24636446  0.66344769     0.16020
H700        H  0.88977185  0.24150416  0.58739446     0.16590
C701        C  0.83032360  0.08013427  0.66935797    -0.09840
C702        C  0.81134327  0.06027418  0.68846695    -0.11400
C703        C  0.93412258  0.04749737  0.56400212    -0.09840
C704        C  0.91560706  0.06736423  0.58252423    -0.11400
loop_ 
_geom_bond_atom_site_label_1 
_geom_bond_atom_site_label_2 
_geom_bond_distance 
_geom_bond_site_symmetry_2 
_ccdc_geom_bond_type 
C1            C2   1.399       .  A
C1            C6   1.395       .  A
C1          C173   1.434       .  S
C2            C3   1.401       .  A
C2            H7   1.085       .  S
C3            C4   1.407       .  A
C3          C176   1.445       .  S
C4            C5   1.413       .  A
C4            H8   1.082       .  S
C5            C6   1.399       .  A
C5          C170   1.486       .  S
C6            H9   1.085       .  S
O10          C20   1.279       .  A
O10        Ni194   1.916       .  S
O11          C21   1.280   1_565  A
O11        Ni370   1.918   1_455  S
O12          C22   1.281   1_565  A
O12         Ni18   1.924       .  S
O13          C23   1.278       .  A
O13        Ni546   1.911   1_455  S
O14          C23   1.279   1_545  A
O14        Ni371   1.917   1_455  S
O15          C22   1.280       .  A
O15        Ni195   1.919   1_554  S
O16          C21   1.279       .  A
O16        Ni547   1.913   1_454  S
O17          C20   1.281   1_545  A
O17         Ni19   1.925       .  S
Ni18        O186   1.916   1_554  S
Ni18        O363   1.916       .  S
Ni18        O541   1.921   1_554  S
Ni18       Ni195   2.393   1_564  S
Ni19        O366   1.918       .  S
Ni19        O191   1.919       .  S
Ni19        O544   1.921       .  S
Ni19       Ni194   2.393   1_545  S
C20         C163   1.438       .  S
C21         C165   1.431       .  S
C22         C175   1.440       .  S
C23         C167   1.430       .  S
C24          C25   1.397       .  A
C24          C29   1.399       .  A
C24         C166   1.436       .  S
C25          C26   1.399       .  A
C25          H30   1.085       .  S
C26          C27   1.403       .  A
C26         C162   1.439       .  S
C27          C28   1.410       .  A
C27          H31   1.082       .  S
C28          C29   1.403       .  A
C28         C157   1.486       .  S
C29          H32   1.085       .  S
C33          C34   1.400       .  A
C33          C38   1.398       .  A
C33         C156   1.436       .  S
C34          C35   1.400       .  A
C34          H39   1.085       .  S
C35          C36   1.403       .  A
C35         C164   1.444       .  S
C36          C37   1.407       .  A
C36          H40   1.084       .  S
C37          C38   1.407       .  A
C37         C151   1.488       .  S
C38          H41   1.082       .  S
O42          C52   1.281   1_565  A
O42         Ni50   1.921       .  S
O43          C53   1.281       .  A
O43         Ni50   1.919       .  S
O44          C54   1.278       .  A
O44         Ni50   1.912       .  S
O45          C55   1.278   1_565  A
O45         Ni50   1.911       .  S
O46          C55   1.280       .  A
O46         Ni51   1.916       .  S
O47          C54   1.280       .  A
O47         Ni51   1.918   1_565  S
O48          C53   1.278       .  A
O48         Ni51   1.911   1_565  S
O49          C52   1.278       .  A
O49         Ni51   1.912       .  S
Ni50        Ni51   2.396   1_565  S
C52         C161   1.433       .  S
C53         C155   1.431       .  S
C54         C149   1.432       .  S
C55         C174   1.429       .  S
C56          C57   1.397       .  A
C56          C61   1.399       .  A
C56         C168   1.435       .  S
C57          C58   1.398       .  A
C57          H62   1.085       .  S
C58          C59   1.402       .  A
C58         C150   1.437       .  S
C59          C60   1.410       .  A
C59          H63   1.082       .  S
C60          C61   1.403       .  A
C60         C145   1.487       .  S
C61          H64   1.085       .  S
C65          C66   1.403       .  A
C65          C70   1.400       .  A
C65         C144   1.443       .  S
C66          C67   1.407       .  A
C66          H71   1.084       .  S
C67          C68   1.407       .  A
C67         C152   1.488       .  S
C68          C69   1.398       .  A
C68          H72   1.082       .  S
C69          C70   1.400       .  A
C69         C141   1.436       .  S
C70          H73   1.085       .  S
C74          C75   1.395       .  A
C74          C79   1.399       .  A
C74         C139   1.434       .  S
C75          C76   1.399       .  A
C75          H80   1.085       .  S
C76          C77   1.413       .  A
C76         C169   1.486       .  S
C77          C78   1.407       .  A
C77          H81   1.082       .  S
C78          C79   1.401       .  A
C78         C138   1.445       .  S
C79          H82   1.085       .  S
C83          C84   1.399       .  A
C83          C88   1.402       .  A
C83         C135   1.442       .  S
C84          C85   1.403       .  A
C84          H89   1.085       .  S
C85          C86   1.410       .  A
C85         C146   1.487       .  S
C86          C87   1.403       .  A
C86          H90   1.082       .  S
C87          C88   1.403       .  A
C87         C133   1.444       .  S
C88          H91   1.084       .  S
O92         C102   1.281       .  A
O92        Ni628   1.921   1_554  S
O93         C103   1.278       .  A
O93        Ni100   1.910       .  S
O94         C104   1.280       .  A
O94        Ni452   1.919       .  S
O95         C105   1.280       .  A
O95        Ni276   1.916   1_554  S
O96         C105   1.278       .  A
O96        Ni101   1.911       .  S
O97         C104   1.281       .  A
O97        Ni629   1.923       .  S
O98         C103   1.280       .  A
O98        Ni277   1.919       .  S
O99         C102   1.279       .  A
O99        Ni453   1.917       .  S
Ni100       O620   1.912       .  S
Ni100       O446   1.918       .  S
Ni100       O271   1.916       .  S
Ni100      Ni277   2.396       .  S
Ni101       O625   1.912   1_554  S
Ni101       O274   1.919   1_554  S
Ni101       O451   1.920       .  S
Ni101      Ni276   2.396   1_554  S
C102        C132   1.437       .  S
C103        C142   1.431       .  S
C104        C134   1.439       .  S
C105        C140   1.429       .  S
O106        C116   1.281       .  A
O106       Ni114   1.925       .  S
O107        C117   1.281       .  A
O107       Ni114   1.921       .  S
O108        C118   1.280       .  A
O108       Ni114   1.919       .  S
O109        C119   1.279       .  A
O109       Ni114   1.918       .  S
O110        C119   1.281       .  A
O110       Ni115   1.921       .  S
O111        C118   1.281       .  A
O111       Ni115   1.924       .  S
O112        C117   1.279       .  A
O112       Ni115   1.916       .  S
O113        C116   1.279       .  A
O113       Ni115   1.916       .  S
Ni114      Ni115   2.393       .  S
C116        C143   1.438       .  S
C117        C129   1.435       .  S
C118        C137   1.440       .  S
C119        C136   1.437       .  S
C120        C121   1.402       .  A
C120        C125   1.402       .  A
C120        C131   1.442       .  S
C121        C122   1.410       .  A
C121        H126   1.082       .  S
C122        C123   1.403       .  A
C122        C158   1.487       .  S
C123        C124   1.399       .  A
C123        H127   1.085       .  S
C124        C125   1.401       .  A
C124        C130   1.440       .  S
C125        H128   1.084       .  S
C129        C130   1.206       .  T
C131        C132   1.207       .  T
C133        C134   1.208       .  T
C135        C136   1.207       .  T
C137        C138   1.209       .  T
C139        C140   1.202       .  T
C141        C142   1.203       .  T
C143        C144   1.208       .  T
C145        C146   1.346       .  D
C145        H147   1.084       .  S
C146        H148   1.085       .  S
C149        C150   1.204       .  T
C151        C152   1.351       .  D
C151        H153   1.084       .  S
C152        H154   1.084       .  S
C155        C156   1.204       .  T
C157        C158   1.346       .  D
C157        H159   1.084       .  S
C158        H160   1.085       .  S
C161        C162   1.205       .  T
C163        C164   1.208       .  T
C165        C166   1.204       .  T
C167        C168   1.203       .  T
C169        C170   1.342       .  D
C169        H171   1.085       .  S
C170        H172   1.085       .  S
C173        C174   1.202       .  T
C175        C176   1.209       .  T
C177        C178   1.399       .  A
C177        C182   1.395       .  A
C177        C349   1.434       .  S
C178        C179   1.401       .  A
C178        H183   1.085       .  S
C179        C180   1.407       .  A
C179        C352   1.445       .  S
C180        C181   1.413       .  A
C180        H184   1.082       .  S
C181        C182   1.399       .  A
C181        C346   1.486       .  S
C182        H185   1.085       .  S
O186        C196   1.279       .  A
O187        C197   1.280   1_565  A
O187       Ni546   1.918   1_455  S
O188        C198   1.281   1_565  A
O188       Ni194   1.924       .  S
O189        C199   1.278       .  A
O189       Ni370   1.911   1_456  S
O190        C199   1.279   1_545  A
O190       Ni547   1.917   1_455  S
O191        C198   1.280       .  A
O192        C197   1.279       .  A
O192       Ni371   1.913   1_455  S
O193        C196   1.281   1_545  A
O193       Ni195   1.925       .  S
Ni194       O539   1.916       .  S
Ni194       O365   1.921       .  S
Ni195       O542   1.918       .  S
Ni195       O368   1.921   1_556  S
C196        C339   1.438       .  S
C197        C341   1.431       .  S
C198        C351   1.440       .  S
C199        C343   1.430       .  S
C200        C201   1.397       .  A
C200        C205   1.399       .  A
C200        C342   1.436       .  S
C201        C202   1.399       .  A
C201        H206   1.085       .  S
C202        C203   1.403       .  A
C202        C338   1.438       .  S
C203        C204   1.410       .  A
C203        H207   1.082       .  S
C204        C205   1.403       .  A
C204        C333   1.486       .  S
C205        H208   1.085       .  S
C209        C210   1.400       .  A
C209        C214   1.398       .  A
C209        C332   1.436       .  S
C210        C211   1.400       .  A
C210        H215   1.085       .  S
C211        C212   1.403       .  A
C211        C340   1.444       .  S
C212        C213   1.407       .  A
C212        H216   1.084       .  S
C213        C214   1.407       .  A
C213        C327   1.488       .  S
C214        H217   1.082       .  S
O218        C228   1.281   1_565  A
O218       Ni226   1.921       .  S
O219        C229   1.281       .  A
O219       Ni226   1.919       .  S
O220        C230   1.278       .  A
O220       Ni226   1.912       .  S
O221        C231   1.278   1_565  A
O221       Ni226   1.911       .  S
O222        C231   1.280       .  A
O222       Ni227   1.916       .  S
O223        C230   1.280       .  A
O223       Ni227   1.918   1_565  S
O224        C229   1.278       .  A
O224       Ni227   1.910   1_565  S
O225        C228   1.278       .  A
O225       Ni227   1.912       .  S
Ni226      Ni227   2.396   1_565  S
C228        C337   1.433       .  S
C229        C331   1.431       .  S
C230        C325   1.432       .  S
C231        C350   1.429       .  S
C232        C233   1.397       .  A
C232        C237   1.399       .  A
C232        C344   1.435       .  S
C233        C234   1.398       .  A
C233        H238   1.085       .  S
C234        C235   1.402       .  A
C234        C326   1.437       .  S
C235        C236   1.410       .  A
C235        H239   1.082       .  S
C236        C237   1.403       .  A
C236        C321   1.487       .  S
C237        H240   1.085       .  S
C241        C242   1.403       .  A
C241        C246   1.400       .  A
C241        C320   1.443       .  S
C242        C243   1.407       .  A
C242        H247   1.084       .  S
C243        C244   1.407       .  A
C243        C328   1.488       .  S
C244        C245   1.398       .  A
C244        H248   1.082       .  S
C245        C246   1.400       .  A
C245        C317   1.436       .  S
C246        H249   1.085       .  S
C250        C251   1.395       .  A
C250        C255   1.399       .  A
C250        C315   1.434       .  S
C251        C252   1.399       .  A
C251        H256   1.085       .  S
C252        C253   1.413       .  A
C252        C345   1.486       .  S
C253        C254   1.407       .  A
C253        H257   1.082       .  S
C254        C255   1.401       .  A
C254        C314   1.445       .  S
C255        H258   1.085       .  S
C259        C260   1.399       .  A
C259        C264   1.402       .  A
C259        C311   1.442       .  S
C260        C261   1.403       .  A
C260        H265   1.085       .  S
C261        C262   1.410       .  A
C261        C322   1.487       .  S
C262        C263   1.403       .  A
C262        H266   1.082       .  S
C263        C264   1.403       .  A
C263        C309   1.444       .  S
C264        H267   1.084       .  S
O268        C278   1.281       .  A
O268       Ni452   1.921       .  S
O269        C279   1.278       .  A
O269       Ni276   1.910       .  S
O270        C280   1.280       .  A
O270       Ni628   1.919       .  S
O271        C281   1.280       .  A
O272        C281   1.278       .  A
O272       Ni277   1.911       .  S
O273        C280   1.281       .  A
O273       Ni453   1.923   1_556  S
O274        C279   1.280       .  A
O275        C278   1.279       .  A
O275       Ni629   1.917       .  S
Ni276       O444   1.912   1_556  S
Ni276       O622   1.918       .  S
Ni277       O449   1.912       .  S
Ni277       O627   1.920       .  S
C278        C308   1.437       .  S
C279        C318   1.431       .  S
C280        C310   1.439       .  S
C281        C316   1.429       .  S
O282        C292   1.281       .  A
O282       Ni290   1.925       .  S
O283        C293   1.281       .  A
O283       Ni290   1.921       .  S
O284        C294   1.280       .  A
O284       Ni290   1.919       .  S
O285        C295   1.279       .  A
O285       Ni290   1.918       .  S
O286        C295   1.281       .  A
O286       Ni291   1.921       .  S
O287        C294   1.281       .  A
O287       Ni291   1.924       .  S
O288        C293   1.279       .  A
O288       Ni291   1.916       .  S
O289        C292   1.279       .  A
O289       Ni291   1.916       .  S
Ni290      Ni291   2.393       .  S
C292        C319   1.438       .  S
C293        C305   1.435       .  S
C294        C313   1.440       .  S
C295        C312   1.437       .  S
C296        C297   1.402       .  A
C296        C301   1.402       .  A
C296        C307   1.442       .  S
C297        C298   1.410       .  A
C297        H302   1.082       .  S
C298        C299   1.403       .  A
C298        C334   1.487       .  S
C299        C300   1.399       .  A
C299        H303   1.085       .  S
C300        C301   1.401       .  A
C300        C306   1.440       .  S
C301        H304   1.084       .  S
C305        C306   1.206       .  T
C307        C308   1.207       .  T
C309        C310   1.208       .  T
C311        C312   1.207       .  T
C313        C314   1.209       .  T
C315        C316   1.202       .  T
C317        C318   1.203       .  T
C319        C320   1.208       .  T
C321        C322   1.346       .  D
C321        H323   1.084       .  S
C322        H324   1.085       .  S
C325        C326   1.204       .  T
C327        C328   1.351       .  D
C327        H329   1.084       .  S
C328        H330   1.084       .  S
C331        C332   1.204       .  T
C333        C334   1.346       .  D
C333        H335   1.084       .  S
C334        H336   1.085       .  S
C337        C338   1.205       .  T
C339        C340   1.208       .  T
C341        C342   1.204       .  T
C343        C344   1.203       .  T
C345        C346   1.342       .  D
C345        H347   1.085       .  S
C346        H348   1.085       .  S
C349        C350   1.202       .  T
C351        C352   1.209       .  T
C353        C354   1.401       .  A
C353        C358   1.406       .  A
C353        C525   1.444       .  S
C354        C355   1.399       .  A
C354        H359   1.085       .  S
C355        C356   1.397       .  A
C355        C528   1.435       .  S
C356        C357   1.400       .  A
C356        H360   1.085       .  S
C357        C358   1.412       .  A
C357        C522   1.486       .  S
C358        H361   1.082       .  S
O362        C372   1.280       .  A
O362       Ni546   1.916       .  S
O363        C373   1.279   1_565  A
O364        C374   1.278   1_565  A
O364       Ni370   1.913       .  S
O365        C375   1.281       .  A
O366        C375   1.279   1_545  A
O367        C374   1.280       .  A
O367       Ni547   1.915   1_554  S
O368        C373   1.281       .  A
O369        C372   1.279   1_545  A
O369       Ni371   1.914       .  S
Ni370       O538   1.916   1_554  S
Ni370      Ni547   2.396   1_564  S
Ni371       O543   1.915       .  S
Ni371      Ni546   2.396   1_545  S
C372        C515   1.431       .  S
C373        C517   1.436       .  S
C374        C527   1.430       .  S
C375        C519   1.437       .  S
C376        C377   1.401       .  A
C376        C381   1.399       .  A
C376        C518   1.440       .  S
C377        C378   1.402       .  A
C377        H382   1.084       .  S
C378        C379   1.402       .  A
C378        C514   1.442       .  S
C379        C380   1.410       .  A
C379        H383   1.082       .  S
C380        C381   1.403       .  A
C380        C509   1.487       .  S
C381        H384   1.085       .  S
C385        C386   1.400       .  A
C385        C390   1.404       .  A
C385        C508   1.442       .  S
C386        C387   1.399       .  A
C386        H391   1.085       .  S
C387        C388   1.398       .  A
C387        C516   1.437       .  S
C388        C389   1.402       .  A
C388        H392   1.085       .  S
C389        C390   1.411       .  A
C389        C503   1.486       .  S
C390        H393   1.082       .  S
O394        C404   1.279   1_565  A
O394       Ni402   1.917       .  S
O395        C405   1.279       .  A
O395       Ni402   1.917       .  S
O396        C406   1.281       .  A
O396       Ni402   1.923       .  S
O397        C407   1.281   1_565  A
O397       Ni402   1.923       .  S
O398        C407   1.280       .  A
O398       Ni403   1.919       .  S
O399        C406   1.280       .  A
O399       Ni403   1.919   1_565  S
O400        C405   1.281       .  A
O400       Ni403   1.921   1_565  S
O401        C404   1.281       .  A
O401       Ni403   1.921       .  S
Ni402      Ni403   2.393   1_565  S
C404        C513   1.437       .  S
C405        C507   1.437       .  S
C406        C501   1.439       .  S
C407        C526   1.439       .  S
C408        C409   1.402       .  A
C408        C413   1.399       .  A
C408        C520   1.442       .  S
C409        C410   1.403       .  A
C409        H414   1.084       .  S
C410        C411   1.403       .  A
C410        C502   1.444       .  S
C411        C412   1.410       .  A
C411        H415   1.082       .  S
C412        C413   1.403       .  A
C412        C497   1.487       .  S
C413        H416   1.085       .  S
C417        C418   1.398       .  A
C417        C422   1.399       .  A
C417        C496   1.437       .  S
C418        C419   1.402       .  A
C418        H423   1.085       .  S
C419        C420   1.411       .  A
C419        C504   1.486       .  S
C420        C421   1.404       .  A
C420        H424   1.082       .  S
C421        C422   1.400       .  A
C421        C493   1.442       .  S
C422        H425   1.085       .  S
C426        C427   1.406       .  A
C426        C431   1.401       .  A
C426        C491   1.443       .  S
C427        C428   1.412       .  A
C427        H432   1.082       .  S
C428        C429   1.400       .  A
C428        C521   1.486       .  S
C429        C430   1.397       .  A
C429        H433   1.085       .  S
C430        C431   1.399       .  A
C430        C490   1.435       .  S
C431        H434   1.085       .  S
C435        C436   1.399       .  A
C435        C440   1.397       .  A
C435        C487   1.435       .  S
C436        C437   1.403       .  A
C436        H441   1.085       .  S
C437        C438   1.410       .  A
C437        C498   1.487       .  S
C438        C439   1.402       .  A
C438        H442   1.082       .  S
C439        C440   1.398       .  A
C439        C485   1.437       .  S
C440        H443   1.085       .  S
O444        C454   1.278       .  A
O445        C455   1.281       .  A
O445       Ni452   1.921   1_655  S
O446        C456   1.280       .  A
O447        C457   1.280       .  A
O447       Ni628   1.919   1_654  S
O448        C457   1.281       .  A
O448       Ni453   1.923   1_655  S
O449        C456   1.278       .  A
O450        C455   1.279       .  A
O450       Ni629   1.917   1_655  S
O451        C454   1.281       .  A
Ni452       O623   1.919   1_455  S
Ni452      Ni629   2.393       .  S
Ni453       O626   1.917   1_454  S
Ni453      Ni628   2.393   1_554  S
C454        C484   1.433       .  S
C455        C494   1.437       .  S
C456        C486   1.432       .  S
C457        C492   1.438       .  S
O458        C468   1.279       .  A
O458       Ni466   1.914       .  S
O459        C469   1.279       .  A
O459       Ni466   1.913       .  S
O460        C470   1.280       .  A
O460       Ni466   1.915       .  S
O461        C471   1.279       .  A
O461       Ni466   1.917       .  S
O462        C471   1.278       .  A
O462       Ni467   1.911       .  S
O463        C470   1.278       .  A
O463       Ni467   1.913       .  S
O464        C469   1.280       .  A
O464       Ni467   1.918       .  S
O465        C468   1.280       .  A
O465       Ni467   1.916       .  S
Ni466      Ni467   2.396       .  S
C468        C495   1.431       .  S
C469        C481   1.431       .  S
C470        C489   1.430       .  S
C471        C488   1.430       .  S
C472        C473   1.403       .  A
C472        C477   1.399       .  A
C472        C483   1.438       .  S
C473        C474   1.410       .  A
C473        H478   1.082       .  S
C474        C475   1.403       .  A
C474        C510   1.486       .  S
C475        C476   1.399       .  A
C475        H479   1.085       .  S
C476        C477   1.397       .  A
C476        C482   1.437       .  S
C477        H480   1.085       .  S
C481        C482   1.204       .  T
C483        C484   1.205       .  T
C485        C486   1.204       .  T
C487        C488   1.203       .  T
C489        C490   1.203       .  T
C491        C492   1.208       .  T
C493        C494   1.207       .  T
C495        C496   1.204       .  T
C497        C498   1.346       .  D
C497        H499   1.085       .  S
C498        H500   1.084       .  S
C501        C502   1.208       .  T
C503        C504   1.345       .  D
C503        H505   1.085       .  S
C504        H506   1.085       .  S
C507        C508   1.207       .  T
C509        C510   1.346       .  D
C509        H511   1.085       .  S
C510        H512   1.084       .  S
C513        C514   1.207       .  T
C515        C516   1.204       .  T
C517        C518   1.206       .  T
C519        C520   1.207       .  T
C521        C522   1.343       .  D
C521        H523   1.085       .  S
C522        H524   1.085       .  S
C525        C526   1.208       .  T
C527        C528   1.203       .  T
C529        C530   1.401       .  A
C529        C534   1.406       .  A
C529        C701   1.444       .  S
C530        C531   1.399       .  A
C530        H535   1.085       .  S
C531        C532   1.397       .  A
C531        C704   1.435       .  S
C532        C533   1.400       .  A
C532        H536   1.085       .  S
C533        C534   1.412       .  A
C533        C698   1.486       .  S
C534        H537   1.082       .  S
O538        C548   1.280       .  A
O539        C549   1.279   1_565  A
O540        C550   1.278   1_565  A
O540       Ni546   1.913       .  S
O541        C551   1.281       .  A
O542        C551   1.279   1_545  A
O543        C550   1.280       .  A
O544        C549   1.281       .  A
O545        C548   1.279   1_545  A
O545       Ni547   1.914       .  S
C548        C691   1.431       .  S
C549        C693   1.435       .  S
C550        C703   1.430       .  S
C551        C695   1.437       .  S
C552        C553   1.401       .  A
C552        C557   1.399       .  A
C552        C694   1.440       .  S
C553        C554   1.402       .  A
C553        H558   1.084       .  S
C554        C555   1.402       .  A
C554        C690   1.442       .  S
C555        C556   1.410       .  A
C555        H559   1.082       .  S
C556        C557   1.403       .  A
C556        C685   1.487       .  S
C557        H560   1.085       .  S
C561        C562   1.400       .  A
C561        C566   1.404       .  A
C561        C684   1.442       .  S
C562        C563   1.399       .  A
C562        H567   1.085       .  S
C563        C564   1.398       .  A
C563        C692   1.437       .  S
C564        C565   1.402       .  A
C564        H568   1.085       .  S
C565        C566   1.411       .  A
C565        C679   1.486       .  S
C566        H569   1.082       .  S
O570        C580   1.279   1_565  A
O570       Ni578   1.917       .  S
O571        C581   1.279       .  A
O571       Ni578   1.917       .  S
O572        C582   1.281       .  A
O572       Ni578   1.923       .  S
O573        C583   1.281   1_565  A
O573       Ni578   1.923       .  S
O574        C583   1.280       .  A
O574       Ni579   1.919       .  S
O575        C582   1.280       .  A
O575       Ni579   1.919   1_565  S
O576        C581   1.281       .  A
O576       Ni579   1.921   1_565  S
O577        C580   1.281       .  A
O577       Ni579   1.921       .  S
Ni578      Ni579   2.393   1_565  S
C580        C689   1.437       .  S
C581        C683   1.437       .  S
C582        C677   1.439       .  S
C583        C702   1.439       .  S
C584        C585   1.402       .  A
C584        C589   1.399       .  A
C584        C696   1.442       .  S
C585        C586   1.403       .  A
C585        H590   1.084       .  S
C586        C587   1.403       .  A
C586        C678   1.444       .  S
C587        C588   1.410       .  A
C587        H591   1.082       .  S
C588        C589   1.403       .  A
C588        C673   1.487       .  S
C589        H592   1.085       .  S
C593        C594   1.398       .  A
C593        C598   1.399       .  A
C593        C672   1.437       .  S
C594        C595   1.402       .  A
C594        H599   1.085       .  S
C595        C596   1.411       .  A
C595        C680   1.486       .  S
C596        C597   1.404       .  A
C596        H600   1.082       .  S
C597        C598   1.400       .  A
C597        C669   1.442       .  S
C598        H601   1.085       .  S
C602        C603   1.406       .  A
C602        C607   1.401       .  A
C602        C667   1.443       .  S
C603        C604   1.412       .  A
C603        H608   1.082       .  S
C604        C605   1.400       .  A
C604        C697   1.486       .  S
C605        C606   1.397       .  A
C605        H609   1.085       .  S
C606        C607   1.399       .  A
C606        C666   1.435       .  S
C607        H610   1.085       .  S
C611        C612   1.399       .  A
C611        C616   1.397       .  A
C611        C663   1.435       .  S
C612        C613   1.403       .  A
C612        H617   1.085       .  S
C613        C614   1.410       .  A
C613        C674   1.487       .  S
C614        C615   1.402       .  A
C614        H618   1.082       .  S
C615        C616   1.398       .  A
C615        C661   1.437       .  S
C616        H619   1.085       .  S
O620        C630   1.278       .  A
O621        C631   1.281       .  A
O621       Ni628   1.921   1_655  S
O622        C632   1.280       .  A
O623        C633   1.279       .  A
O624        C633   1.281       .  A
O624       Ni629   1.923   1_655  S
O625        C632   1.278       .  A
O626        C631   1.279       .  A
O627        C630   1.281       .  A
C630        C660   1.433       .  S
C631        C670   1.437       .  S
C632        C662   1.432       .  S
C633        C668   1.438       .  S
O634        C644   1.279       .  A
O634       Ni642   1.914       .  S
O635        C645   1.279       .  A
O635       Ni642   1.913       .  S
O636        C646   1.280       .  A
O636       Ni642   1.915       .  S
O637        C647   1.279       .  A
O637       Ni642   1.917       .  S
O638        C647   1.278       .  A
O638       Ni643   1.911       .  S
O639        C646   1.278       .  A
O639       Ni643   1.913       .  S
O640        C645   1.280       .  A
O640       Ni643   1.918       .  S
O641        C644   1.280       .  A
O641       Ni643   1.916       .  S
Ni642      Ni643   2.396       .  S
C644        C671   1.431       .  S
C645        C657   1.431       .  S
C646        C665   1.430       .  S
C647        C664   1.430       .  S
C648        C649   1.403       .  A
C648        C653   1.399       .  A
C648        C659   1.438       .  S
C649        C650   1.410       .  A
C649        H654   1.082       .  S
C650        C651   1.403       .  A
C650        C686   1.486       .  S
C651        C652   1.399       .  A
C651        H655   1.085       .  S
C652        C653   1.397       .  A
C652        C658   1.437       .  S
C653        H656   1.085       .  S
C657        C658   1.204       .  T
C659        C660   1.205       .  T
C661        C662   1.204       .  T
C663        C664   1.203       .  T
C665        C666   1.203       .  T
C667        C668   1.208       .  T
C669        C670   1.207       .  T
C671        C672   1.204       .  T
C673        C674   1.346       .  D
C673        H675   1.085       .  S
C674        H676   1.084       .  S
C677        C678   1.208       .  T
C679        C680   1.345       .  D
C679        H681   1.085       .  S
C680        H682   1.085       .  S
C683        C684   1.207       .  T
C685        C686   1.346       .  D
C685        H687   1.085       .  S
C686        H688   1.084       .  S
C689        C690   1.207       .  T
C691        C692   1.204       .  T
C693        C694   1.206       .  T
C695        C696   1.207       .  T
C697        C698   1.343       .  D
C697        H699   1.085       .  S
C698        H700   1.085       .  S
C701        C702   1.208       .  T
C703        C704   1.203       .  T
