geometry optimzed in LAMMPS
_audit_creation_date              2020-11-30 
_audit_creation_method            'lammps2cif' 
_symmetry_space_group_name_H-M    'P1' 
_symmetry_Int_Tables_number       1 
_symmetry_cell_setting            triclinic 
loop_ 
_symmetry_equiv_pos_as_xyz 
  x,y,z 
_cell_length_a                    23.07853745 
_cell_length_b                    22.97240163151668 
_cell_length_c                    41.57211186049684 
_cell_angle_alpha                 86.87488615399303 
_cell_angle_beta                  90.80376820159005 
_cell_angle_gamma                 90.4223238757633 
loop_ 
_atom_site_label 
_atom_site_type_symbol 
_atom_site_fract_x 
_atom_site_fract_y 
_atom_site_fract_z 
_atom_site_charge 
In1        In  0.27201999  0.46488624  0.75880741     1.36900
C2          C  0.25746034  0.50825887  0.69791049     0.78000
O3          O  0.36358379  0.44641672  0.73984575    -0.60400
O4          O  0.31274634  0.37851136  0.76122380    -0.51300
C5          C  0.27937392  0.52273884  0.81319802     0.70700
O6          O  0.23909472  0.53117947  0.79268765    -0.46200
C7          C  0.18505686  0.39020977  0.77049946     0.75400
O8          O  0.22828628  0.46660746  0.71025506    -0.58000
O9          O  0.23527241  0.38481865  0.78261555    -0.48100
O10         O  0.29150822  0.53169210  0.71767776    -0.54500
C11         C  0.35872285  0.39241490  0.74682105     0.85600
O12         O  0.31912283  0.49089505  0.80386057    -0.56400
O13         O  0.17659878  0.43828797  0.75495944    -0.59600
C14         C  0.39817302  0.24140720  0.72718641    -0.10400
C15         C  0.36981001  0.29442968  0.72956779    -0.04300
C16         C  0.39829236  0.34576494  0.73706439    -0.10400
C17         C  0.45963796  0.34657539  0.73837651     0.10600
C18         C  0.49047198  0.29402968  0.73365396    -0.02200
C19         C  0.45967928  0.24098057  0.72855841     0.10400
C20         C  0.49124345  0.18997660  0.72427062    -0.12200
C21         C  0.55184985  0.19031322  0.72529960    -0.12200
C22         C  0.58318014  0.24145777  0.73114991     0.10400
C23         C  0.55216800  0.29409622  0.73527511    -0.02200
C24         C  0.49091300  0.39729314  0.74509878    -0.12300
C25         C  0.55133408  0.39726223  0.74680814    -0.12300
C26         C  0.58271336  0.34649867  0.74186021     0.10600
C27         C  0.64384886  0.34562774  0.74432595    -0.10400
C28         C  0.67305208  0.29452125  0.73869835    -0.04300
C29         C  0.64469073  0.24239634  0.73264283    -0.10400
H30         H  0.46933834  0.14958835  0.71939892     0.07800
H31         H  0.57389258  0.15007095  0.72120276     0.07800
H32         H  0.46904610  0.43758635  0.74924874     0.08000
H33         H  0.57327220  0.43735491  0.75226965     0.08000
H34         H  0.32282906  0.29504937  0.72812533     0.04500
H35         H  0.72002359  0.29502857  0.74035084     0.04500
C36         C  0.14468120  0.23504010  0.75942635    -0.10400
C37         C  0.17378577  0.28620969  0.76639969    -0.04300
C38         C  0.14550373  0.33895647  0.76968312    -0.10400
C39         C  0.08411779  0.34009554  0.76806478     0.10600
C40         C  0.05293321  0.28745671  0.76281271    -0.02200
C41         C  0.08335123  0.23466642  0.75821259     0.10400
C42         C  0.05170663  0.18405242  0.75179577    -0.12200
C43         C  0.99118643  0.18434545  0.75060989    -0.12200
C44         C  0.96023209  0.23540935  0.75562096     0.10400
C45         C  0.99127853  0.28784457  0.76144759    -0.02200
C46         C  0.05305371  0.39147124  0.77224462    -0.12300
C47         C  0.99250532  0.39172345  0.77123007    -0.12300
C48         C  0.96075306  0.34068816  0.76574921     0.10600
C49         C  0.89928377  0.33996563  0.76508633    -0.10400
C50         C  0.87029885  0.28807053  0.75911002    -0.04300
C51         C  0.89899402  0.23636997  0.75416950    -0.10400
H52         H  0.07354768  0.14360893  0.74769616     0.07800
H53         H  0.96873727  0.14429511  0.74562243     0.07800
H54         H  0.07529728  0.43176321  0.77705642     0.08000
H55         H  0.97082575  0.43222019  0.77519485     0.08000
H56         H  0.22082780  0.28553145  0.76719868     0.04500
H57         H  0.82331538  0.28786313  0.75781420     0.04500
In58       In  0.27090497  0.11469272  0.74057941     1.36900
C59         C  0.28311768  0.07368191  0.80229432     0.78000
O60         O  0.36791848  0.14076721  0.74196665    -0.60400
O61         O  0.30682433  0.19564099  0.71750074    -0.51300
C62         C  0.25588736  0.05444370  0.68725450     0.70700
O63         O  0.21750134  0.08553337  0.69862122    -0.46200
C64         C  0.18344597  0.18743643  0.75049600     0.75400
O65         O  0.25497951  0.04592652  0.78162032    -0.58000
O66         O  0.22610505  0.19902470  0.73275155    -0.48100
O67         O  0.30866120  0.11828293  0.79049983    -0.54500
C68         C  0.35827334  0.18977482  0.72758088     0.85600
O69         O  0.30017922  0.04820416  0.70529485    -0.56400
O70         O  0.18221414  0.13555236  0.76214169    -0.59600
In71       In  0.76952645  0.11452652  0.74117837     1.36900
C72         C  0.77101227  0.05137830  0.68890648     0.78000
O73         O  0.67438497  0.14160150  0.74420609    -0.60400
O74         O  0.73503275  0.19873954  0.72119119    -0.51300
C75         C  0.75677283  0.07282926  0.80237472     0.70700
O76         O  0.73020673  0.11617242  0.78990961    -0.46200
C77         C  0.86008161  0.18704688  0.74702225     0.75400
O78         O  0.72773346  0.05284476  0.70694386    -0.58000
O79         O  0.82041334  0.19371372  0.72611872    -0.48100
O80         O  0.81565364  0.07473942  0.70025513    -0.54500
C81         C  0.68413107  0.19169787  0.73133818     0.85600
O82         O  0.78877522  0.04785850  0.78285440    -0.56400
O83         O  0.85678655  0.13988927  0.76397994    -0.59600
In84       In  0.77275217  0.46485072  0.76107692     1.36900
C85         C  0.76957564  0.52399344  0.81470469     0.78000
O86         O  0.68273178  0.44450544  0.74025255    -0.60400
O87         O  0.72389501  0.38372848  0.77309266    -0.51300
C88         C  0.78251002  0.50247227  0.69942993     0.70700
O89         O  0.76191185  0.53523951  0.72001934    -0.46200
C90         C  0.86028524  0.39035393  0.76848011     0.75400
O91         O  0.72516013  0.50244703  0.80197837    -0.58000
O92         O  0.81128721  0.38275593  0.78115567    -0.48100
O93         O  0.81399312  0.52306471  0.79739819    -0.54500
C94         C  0.68224714  0.39394703  0.75376675     0.85600
O95         O  0.80015608  0.45431815  0.71121992    -0.56400
O96         O  0.86778109  0.44043263  0.75501091    -0.59600
In97       In  0.67895144  0.53093595  0.51005723     1.36900
C98         C  0.71168413  0.52245943  0.44931361     0.78000
O99         O  0.65350962  0.43435626  0.50659054    -0.60400
O100        O  0.60154234  0.49000176  0.53274471    -0.51300
C101        C  0.74571830  0.53583833  0.56283871     0.70700
O102        O  0.71910085  0.57927549  0.55057531    -0.46200
C103        C  0.60647359  0.62074126  0.50061276     0.75400
O104        O  0.66651348  0.49967727  0.46104175    -0.58000
O105        O  0.59937389  0.57812798  0.52053987    -0.48100
O106        O  0.74366560  0.54729760  0.46957539    -0.54500
C107        C  0.60658377  0.44063840  0.52123687     0.85600
O108        O  0.74508679  0.49245964  0.54548426    -0.56400
O109        O  0.65467054  0.62116395  0.48665918    -0.59600
In110      In  0.32625563  0.52707017  0.50095897     1.36900
C111        C  0.27109240  0.51726190  0.44426927     0.78000
O112        O  0.35138489  0.62067424  0.48192265    -0.60400
O113        O  0.40920482  0.56937565  0.51114131    -0.51300
C114        C  0.28087859  0.53582905  0.55970845     0.70700
O115        O  0.26418879  0.49672100  0.54131200    -0.46200
C116        C  0.40065103  0.43885335  0.50644758     0.75400
O117        O  0.30854237  0.48204203  0.45536842    -0.58000
O118        O  0.40747407  0.48442124  0.48861281    -0.48100
O119        O  0.25664489  0.55473839  0.46381216    -0.54500
C120        C  0.40126931  0.61650751  0.49483328     0.85600
O121        O  0.31442435  0.57271937  0.54645499    -0.56400
O122        O  0.35228238  0.43531204  0.52037175    -0.59600
C123        C  0.45037821  0.39943771  0.51317831    -0.10400
C124        C  0.50266296  0.42836276  0.51799564    -0.04300
C125        C  0.55586251  0.40001405  0.52048388    -0.10400
C126        C  0.55671035  0.33831471  0.51899671     0.10600
C127        C  0.50313679  0.30716471  0.51587297    -0.02200
C128        C  0.44968695  0.33793956  0.51306141     0.10400
C129        C  0.39770749  0.30656339  0.50977344    -0.12200
C130        C  0.39738548  0.24578995  0.51028580    -0.12200
C131        C  0.44923045  0.21410732  0.51283070     0.10400
C132        C  0.50298428  0.24522430  0.51515288    -0.02200
C133        C  0.60863964  0.30674515  0.52119678    -0.12300
C134        C  0.60860166  0.24607128  0.51977555    -0.12300
C135        C  0.55655597  0.21451332  0.51663598     0.10600
C136        C  0.55578844  0.15293364  0.51583809    -0.10400
C137        C  0.50264716  0.12372955  0.51541585    -0.04300
C138        C  0.44957793  0.15223812  0.51364231    -0.10400
H139        H  0.35658527  0.32872876  0.50731899     0.07800
H140        H  0.35582224  0.22407441  0.50884764     0.07800
H141        H  0.64981327  0.32858757  0.52442108     0.08000
H142        H  0.64978542  0.22397186  0.52205647     0.08000
H143        H  0.50185216  0.47558213  0.51839109     0.04500
H144        H  0.50263136  0.07679331  0.51424584     0.04500
In145      In  0.32386335  0.02791226  0.49552328     1.36900
C146        C  0.26789698  0.03913572  0.43875660     0.78000
O147        O  0.35367025  0.12363561  0.49373520    -0.60400
O148        O  0.40154055  0.05998593  0.52096420    -0.51300
C149        C  0.27164976  0.01481541  0.55258313     0.70700
O150        O  0.25877240  0.05606382  0.53237754    -0.46200
C151        C  0.39922516  0.94547354  0.48049615     0.75400
O152        O  0.30297033  0.07638808  0.44867877    -0.58000
O153        O  0.40164325  0.99821021  0.47057039    -0.48100
O154        O  0.25589164  0.99877739  0.45957258    -0.54500
C155        C  0.39880492  0.11228889  0.51027056     0.85600
O156        O  0.30440799  0.97737521  0.54168361    -0.56400
O157        O  0.35466009  0.93307796  0.49673172    -0.59600
In158      In  0.68041933  0.03254500  0.49640377     1.36900
C159        C  0.73139337  0.05097443  0.43935403     0.78000
O160        O  0.65364749  0.93612245  0.49399680    -0.60400
O161        O  0.60072205  0.00184154  0.47238691    -0.51300
C162        C  0.73244284  0.01920548  0.55412939     0.70700
O163        O  0.69477590  0.98480325  0.54391748    -0.46200
C164        C  0.60649726  0.11435539  0.51245470     0.75400
O165        O  0.69512249  0.08483558  0.45044600    -0.58000
O166        O  0.60334445  0.06125870  0.52146329    -0.48100
O167        O  0.74755789  0.01038393  0.45928673    -0.54500
C168        C  0.60606890  0.94829388  0.47994678     0.85600
O169        O  0.74973777  0.05709515  0.53309519    -0.56400
O170        O  0.65169360  0.12789037  0.49696393    -0.59600
C171        C  0.45095951  0.65779465  0.48991078    -0.10400
C172        C  0.50439256  0.63005421  0.49030842    -0.04300
C173        C  0.55688180  0.65966139  0.49210241    -0.10400
C174        C  0.55728142  0.72129773  0.48850734     0.10600
C175        C  0.50341806  0.75155607  0.48593475    -0.02200
C176        C  0.44985388  0.71974237  0.48767332     0.10400
C177        C  0.39772833  0.75077732  0.48759545    -0.12200
C178        C  0.39743447  0.81166811  0.48437865    -0.12200
C179        C  0.44930569  0.84407168  0.48142340     0.10400
C180        C  0.50315197  0.81369523  0.48251506    -0.02200
C181        C  0.60923840  0.75338450  0.48765957    -0.12300
C182        C  0.60898615  0.81410179  0.48340546    -0.12300
C183        C  0.55679306  0.84536561  0.48085089     0.10600
C184        C  0.55592188  0.90716008  0.47610473    -0.10400
C185        C  0.50235244  0.93464567  0.47168052    -0.04300
C186        C  0.44948657  0.90580783  0.47664938    -0.10400
H187        H  0.35655233  0.72825218  0.48958607     0.07800
H188        H  0.35574059  0.83275087  0.48319598     0.07800
H189        H  0.65061739  0.73166603  0.48956507     0.08000
H190        H  0.65054331  0.83596302  0.48141615     0.08000
H191        H  0.50535710  0.58269969  0.49083790     0.04500
H192        H  0.50182042  0.98152996  0.46766820     0.04500
C193        C  0.60729326  0.74038270  0.27229959    -0.10400
C194        C  0.63435095  0.79440640  0.27533867    -0.04300
C195        C  0.60500114  0.84725750  0.27147914    -0.10400
C196        C  0.54413408  0.84658454  0.26670918     0.10600
C197        C  0.51408200  0.79194664  0.26714792    -0.02200
C198        C  0.54562610  0.73852303  0.27009252     0.10400
C199        C  0.51440614  0.68558204  0.27151815    -0.12200
C200        C  0.45383088  0.68451955  0.26925780    -0.12200
C201        C  0.42198630  0.73626764  0.26498250     0.10400
C202        C  0.45245090  0.79081666  0.26406416    -0.02200
C203        C  0.51242067  0.89842841  0.26225394    -0.12300
C204        C  0.45220742  0.89729731  0.25853640    -0.12300
C205        C  0.42136774  0.84429800  0.25985816     0.10600
C206        C  0.36030201  0.84257942  0.25641055    -0.10400
C207        C  0.33182458  0.78902857  0.25811797    -0.04300
C208        C  0.36045599  0.73599514  0.26229360    -0.10400
H209        H  0.53625462  0.64435419  0.27540405     0.07800
H210        H  0.43209843  0.64258880  0.27109193     0.07800
H211        H  0.53389903  0.94050665  0.26193016     0.08000
H212        H  0.42996067  0.93842696  0.25484782     0.08000
H213        H  0.68111754  0.79586305  0.27776960     0.04500
H214        H  0.28494107  0.78877962  0.25562296     0.04500
C215        C  0.85923163  0.73324923  0.23516046    -0.10400
C216        C  0.83113866  0.78655480  0.23552270    -0.04300
C217        C  0.86012029  0.83893442  0.23974953    -0.10400
C218        C  0.92154359  0.83952898  0.24013996     0.10600
C219        C  0.95198458  0.78598992  0.23752653    -0.02200
C220        C  0.92076612  0.73226436  0.23608823     0.10400
C221        C  0.95191317  0.68012154  0.23463808    -0.12200
C222        C  0.01263603  0.68030020  0.23397834    -0.12200
C223        C  0.04453176  0.73263334  0.23490086     0.10400
C224        C  0.01371868  0.78615353  0.23691753    -0.02200
C225        C  0.95334865  0.89119324  0.24365430    -0.12300
C226        C  0.01376541  0.89137700  0.24296412    -0.12300
C227        C  0.04459195  0.83988864  0.23889262     0.10600
C228        C  0.10569004  0.83990549  0.23756636    -0.10400
C229        C  0.13443138  0.78797208  0.23339621    -0.04300
C230        C  0.10621495  0.73406701  0.23322226    -0.10400
H231        H  0.92941841  0.63882557  0.23317689     0.07800
H232        H  0.03424724  0.63910935  0.23195813     0.07800
H233        H  0.93198449  0.93210887  0.24675892     0.08000
H234        H  0.03614412  0.93243289  0.24550251     0.08000
H235        H  0.78411683  0.78692157  0.23458579     0.04500
H236        H  0.18136370  0.78960031  0.23223589     0.04500
In237      In  0.23178743  0.96611225  0.24689869     1.36900
C238        C  0.22351534  0.01466343  0.30362481     0.78000
O239        O  0.14260410  0.93883549  0.22756315    -0.60400
O240        O  0.18834104  0.88310041  0.26126343    -0.51300
C241        C  0.23971653  0.02365501  0.18961755     0.70700
O242        O  0.27925107  0.99187521  0.20178988    -0.46200
C243        C  0.32092662  0.89283600  0.25062748     0.75400
O244        O  0.25796630  0.03426401  0.28219590    -0.58000
O245        O  0.27783745  0.88864439  0.23194967    -0.48100
O246        O  0.18961309  0.97587020  0.29431185    -0.54500
C247        C  0.14469816  0.88993025  0.24297536     0.85600
O248        O  0.19857389  0.03214593  0.20858220    -0.56400
O249        O  0.32152965  0.93831319  0.26638673    -0.59600
In250      In  0.23397162  0.60958770  0.25005045     1.36900
C251        C  0.22935599  0.55459740  0.30824975     0.78000
O252        O  0.33005645  0.63838746  0.24768245    -0.60400
O253        O  0.26962063  0.68820392  0.27179144    -0.51300
C254        C  0.23913580  0.55512306  0.19502745     0.70700
O255        O  0.27662644  0.59090198  0.20400336    -0.46200
C256        C  0.14668774  0.68341428  0.23499468     0.75400
O257        O  0.26504715  0.54004045  0.28736527    -0.58000
O258        O  0.19780037  0.68914536  0.22488622    -0.48100
O259        O  0.19346783  0.59213706  0.29792099    -0.54500
C260        C  0.32066752  0.68455822  0.26177564     0.85600
O261        O  0.20125030  0.54206526  0.21593995    -0.56400
O262        O  0.13770113  0.63551380  0.25044426    -0.59600
In263      In  0.73601620  0.96494109  0.25206552     1.36900
C264        C  0.75589662  0.02607532  0.30379926     0.78000
O265        O  0.64022984  0.93892003  0.24650518    -0.60400
O266        O  0.69116289  0.89948068  0.28413661    -0.51300
C267        C  0.72167165  0.99942994  0.18978561     0.70700
O268        O  0.71068412  0.94908411  0.20153052    -0.46200
C269        C  0.82087969  0.88814660  0.24576295     0.75400
O270        O  0.71106855  0.03413666  0.28626057    -0.58000
O271        O  0.77365140  0.87795822  0.25978526    -0.48100
O272        O  0.79364230  0.99510072  0.29165725    -0.54500
C273        C  0.64412762  0.89895804  0.26846447     0.85600
O274        O  0.73856536  0.03473713  0.21050382    -0.56400
O275        O  0.82740796  0.94064163  0.23571626    -0.59600
In276      In  0.72966773  0.61272192  0.25391172     1.36900
C277        C  0.73632986  0.55817464  0.31207827     0.78000
O278        O  0.82551204  0.63899447  0.25707100    -0.60400
O279        O  0.76909030  0.68579033  0.22469126    -0.51300
C280        C  0.71871072  0.55711013  0.19933039     0.70700
O281        O  0.75656504  0.54259850  0.22047762    -0.46200
C282        C  0.64810891  0.69092544  0.26786289     0.75400
O283        O  0.77666967  0.58881488  0.30007135    -0.58000
O284        O  0.70187067  0.69684989  0.27249815    -0.48100
O285        O  0.69475399  0.54964367  0.29275101    -0.54500
C286        C  0.81883833  0.68258964  0.23764804     0.85600
O287        O  0.68345647  0.59423333  0.20812170    -0.56400
O288        O  0.63475862  0.64256457  0.25676780    -0.59600
In289      In  0.82348608  0.53749573  0.01379749     1.36900
C290        C  0.75952761  0.52237376  0.06636313     0.78000
O291        O  0.84526663  0.44716725  0.99579997    -0.60400
O292        O  0.90699181  0.49402219  0.02230317    -0.51300
C293        C  0.79190581  0.55074561  0.95162410     0.70700
O294        O  0.75841999  0.52718780  0.97256529    -0.46200
C295        C  0.89243840  0.62756591  0.02673896     0.75400
O296        O  0.79129553  0.48336244  0.05624372    -0.58000
O297        O  0.89627729  0.57725332  0.04020504    -0.48100
O298        O  0.75306119  0.56601652  0.04681398    -0.54500
C299        C  0.89667911  0.45000640  0.00636421     0.85600
O300        O  0.83824802  0.57045879  0.96318374    -0.56400
O301        O  0.84779212  0.63486565  0.00907466    -0.59600
In302      In  0.16838161  0.54296037  0.99871836     1.36900
C303        C  0.23186469  0.55666912  0.94568000     0.78000
O304        O  0.14465674  0.44637279  0.00549251    -0.60400
O305        O  0.09649325  0.50167490  0.97269615    -0.51300
C306        C  0.20524581  0.52864484  0.05971921     0.70700
O307        O  0.23774882  0.54977362  0.03762223    -0.46200
C308        C  0.09488287  0.62938191  0.00735684     0.75400
O309        O  0.19884774  0.59544407  0.95505530    -0.58000
O310        O  0.08304499  0.58407121  0.99287924    -0.48100
O311        O  0.23838528  0.51376442  0.96567946    -0.54500
C312        C  0.10032112  0.45258580  0.98754298     0.85600
O313        O  0.15593996  0.51315946  0.05001905    -0.56400
O314        O  0.14745247  0.63390574  0.01579685    -0.59600
C315        C  0.04954153  0.41304838  0.98889915    -0.10400
C316        C  0.99772766  0.44104962  0.99420066    -0.04300
C317        C  0.94515563  0.41156182  0.99809539    -0.10400
C318        C  0.94341137  0.35044490  0.99457581     0.10600
C319        C  0.99625521  0.32048823  0.98945932    -0.02200
C320        C  0.04977080  0.35193760  0.98717776     0.10400
C321        C  0.10124537  0.32179032  0.98240146    -0.12200
C322        C  0.10096283  0.26150285  0.98025777    -0.12200
C323        C  0.04903123  0.22930898  0.98251819     0.10400
C324        C  0.99581272  0.25901395  0.98676793    -0.02200
C325        C  0.89139663  0.31834763  0.99634267    -0.12300
C326        C  0.89076146  0.25815410  0.99280435    -0.12300
C327        C  0.94228198  0.22738754  0.98839752     0.10600
C328        C  0.94255503  0.16615333  0.98495822    -0.10400
C329        C  0.99534620  0.13875048  0.98033124    -0.04300
C330        C  0.04832001  0.16831255  0.97975735    -0.10400
H331        H  0.14225913  0.34474968  0.97997737     0.07800
H332        H  0.14170251  0.24060147  0.97602355     0.07800
H333        H  0.85063522  0.33941649  0.00018267     0.08000
H334        H  0.84917251  0.23621314  0.99340091     0.08000
H335        H  0.99870623  0.48801881  0.99604415     0.04500
H336        H  0.99568958  0.09174459  0.97911188     0.04500
In337      In  0.17299476  0.04231891  0.99111836     1.36900
C338        C  0.23812811  0.03885191  0.93825968     0.78000
O339        O  0.14867819  0.95058193  0.01184815    -0.60400
O340        O  0.08985833  0.99856052  0.98143783    -0.51300
C341        C  0.20876337  0.05317352  0.05225219     0.70700
O342        O  0.16008286  0.06858236  0.04111890    -0.46200
C343        C  0.09984836  0.13003539  0.97947796     0.75400
O344        O  0.21323012  0.99456232  0.95093318    -0.58000
O345        O  0.09718761  0.08237159  0.96591534    -0.48100
O346        O  0.23638255  0.08284159  0.95513707    -0.54500
C347        C  0.09825507  0.95393908  0.99965835     0.85600
O348        O  0.24183121  0.03303361  0.03147893    -0.56400
O349        O  0.14521186  0.13655838  0.99630565    -0.59600
In350      In  0.81642372  0.03815099  0.00012515     1.36900
C351        C  0.76972844  0.03504660  0.94080531     0.78000
O352        O  0.84897270  0.13169987  0.00582695    -0.60400
O353        O  0.89295093  0.07684974  0.97534568    -0.51300
C354        C  0.75266527  0.03895788  0.05353268     0.70700
O355        O  0.78507329  0.08035739  0.04404829    -0.46200
C356        C  0.89315798  0.95454386  0.01658257     0.75400
O357        O  0.79853925  0.99408379  0.95411699    -0.58000
O358        O  0.89670488  0.00604310  0.02542917    -0.48100
O359        O  0.75816855  0.07502966  0.95941017    -0.54500
C360        C  0.89207586  0.12539745  0.98805050     0.85600
O361        O  0.74713630  0.99964494  0.03359122    -0.56400
O362        O  0.84650138  0.94348344  0.00199587    -0.59600
C363        C  0.94333785  0.66772269  0.02649223    -0.10400
C364        C  0.99624983  0.63933919  0.02457047    -0.04300
C365        C  0.04738038  0.66839489  0.01604759    -0.10400
C366        C  0.04798359  0.72995869  0.01326203     0.10600
C367        C  0.99550880  0.76071070  0.01793943    -0.02200
C368        C  0.94252489  0.72950001  0.02360110     0.10400
C369        C  0.89121170  0.76090940  0.02698389    -0.12200
C370        C  0.89152462  0.82187505  0.02516657    -0.12200
C371        C  0.94312831  0.85366533  0.01968227     0.10400
C372        C  0.99580805  0.82270188  0.01597706    -0.02200
C373        C  0.09851759  0.76151636  0.00518029    -0.12300
C374        C  0.09891563  0.82227574  0.00346223    -0.12300
C375        C  0.04860839  0.85362220  0.00957986     0.10600
C376        C  0.04874624  0.91517525  0.00853969    -0.10400
C377        C  0.99738103  0.94433280  0.01409885    -0.04300
C378        C  0.94437420  0.91553428  0.01830857    -0.10400
H379        H  0.85058411  0.73847740  0.03185755     0.07800
H380        H  0.85105507  0.84383520  0.02884840     0.07800
H381        H  0.13856608  0.73956189  0.00032620     0.08000
H382        H  0.13902736  0.84443911  0.99734543     0.08000
H383        H  0.99698392  0.59204366  0.02701646     0.04500
H384        H  0.99829964  0.99162811  0.01311462     0.04500
C385        C  0.75747452  0.49486763  0.15689073    -0.20800
C386        C  0.71890834  0.53790920  0.16579166    -0.08900
C387        C  0.68692267  0.56904437  0.14137802     0.30000
C388        C  0.69703186  0.56058681  0.10886829    -0.20800
C389        C  0.73834538  0.52036830  0.09991819    -0.08900
C390        C  0.76686478  0.48571805  0.12430600     0.30000
F391        F  0.80775672  0.44665727  0.11682019    -0.19400
H392        H  0.78275865  0.47049665  0.17508254     0.18300
H393        H  0.67478044  0.58793763  0.09065338     0.18300
F394        F  0.64928240  0.61131719  0.14868842    -0.19400
C395        C  0.73134514  0.06937232  0.14128007    -0.20800
C396        C  0.71775243  0.01339216  0.15437169    -0.08900
C397        C  0.70517587  0.96902204  0.13300008     0.30000
C398        C  0.71111023  0.97937249  0.09970520    -0.20800
C399        C  0.72985092  0.03387841  0.08685392    -0.08900
C400        C  0.73711240  0.07971384  0.10785799     0.30000
F401        F  0.75305265  0.13379907  0.09633036    -0.19400
H402        H  0.74018148  0.10453444  0.15698822     0.18300
H403        H  0.70508549  0.94334614  0.08421857     0.18300
F404        F  0.69090413  0.91425473  0.14422674    -0.19400
C405        C  0.27822158  0.55899671  0.13932285    -0.20800
C406        C  0.23735375  0.53593368  0.16150604    -0.08900
C407        C  0.19070051  0.50294342  0.14999268     0.30000
C408        C  0.18262523  0.49779353  0.11680496    -0.20800
C409        C  0.22095010  0.52504028  0.09449642    -0.08900
C410        C  0.27020699  0.55375698  0.10617446     0.30000
F411        F  0.30852383  0.58029222  0.08559992    -0.19400
H412        H  0.31480311  0.58437577  0.14746645     0.18300
H413        H  0.14464155  0.47467847  0.10849659     0.18300
F414        F  0.15096100  0.47869044  0.17052209    -0.19400
C415        C  0.19022831  0.07211441  0.14163975    -0.20800
C416        C  0.23894747  0.04326193  0.15495667    -0.08900
C417        C  0.28215503  0.02520037  0.13398345     0.30000
C418        C  0.27391095  0.03126973  0.10044228    -0.20800
C419        C  0.22292845  0.05605428  0.08718824    -0.08900
C420        C  0.18236961  0.07891538  0.10822298     0.30000
F421        F  0.13338789  0.10542348  0.09666048    -0.19400
H422        H  0.15653350  0.08681861  0.15708547     0.18300
H423        H  0.30618201  0.01410312  0.08492105     0.18300
F424        F  0.33087897  0.99849672  0.14577336    -0.19400
C425        C  0.79017546  0.01847234  0.39332242    -0.20800
C426        C  0.74799347  0.05545125  0.40480720    -0.08900
C427        C  0.71539402  0.09032668  0.38218261     0.30000
C428        C  0.72139123  0.08412585  0.34903350    -0.20800
C429        C  0.76056885  0.04398995  0.33761071    -0.08900
C430        C  0.79681884  0.01296669  0.36013584     0.30000
F431        F  0.83500348  0.97308003  0.35039042    -0.19400
H432        H  0.81579548  0.99118775  0.41006111     0.18300
H433        H  0.69292073  0.10836487  0.33235498     0.18300
F434        F  0.67411868  0.12701300  0.39195462    -0.19400
C435        C  0.27485113  0.07822161  0.38151654    -0.20800
C436        C  0.24756843  0.04047599  0.40463262    -0.08900
C437        C  0.20683493  0.99981754  0.39401750     0.30000
C438        C  0.19590381  0.99518961  0.36103110    -0.20800
C439        C  0.22614668  0.03011536  0.33784812    -0.08900
C440        C  0.26461263  0.07292550  0.34845806     0.30000
F441        F  0.29458109  0.10764130  0.32698139    -0.19400
H442        H  0.30666346  0.10979928  0.38892274     0.18300
H443        H  0.16620096  0.96162908  0.35363638     0.18300
F444        F  0.17967861  0.96242861  0.41535032    -0.19400
C445        C  0.28250167  0.48559282  0.38814010    -0.20800
C446        C  0.25122072  0.51742910  0.41010781    -0.08900
C447        C  0.20711674  0.55474629  0.39813558     0.30000
C448        C  0.19733531  0.56282066  0.36487855    -0.20800
C449        C  0.23188293  0.53470698  0.34281823    -0.08900
C450        C  0.27342986  0.49445514  0.35482747     0.30000
F451        F  0.30761800  0.46625230  0.33449286    -0.19400
H452        H  0.31679653  0.45646009  0.39663443     0.18300
H453        H  0.16486328  0.59400160  0.35637530     0.18300
F454        F  0.17541876  0.58575244  0.41838221    -0.19400
C455        C  0.68584940  0.51201065  0.35962366    -0.20800
C456        C  0.73557975  0.53909501  0.34672236    -0.08900
C457        C  0.78059137  0.55502069  0.36794785     0.30000
C458        C  0.77395691  0.54721434  0.40137973    -0.20800
C459        C  0.72282079  0.52288781  0.41425190    -0.08900
C460        C  0.67943820  0.50370637  0.39291407     0.30000
F461        F  0.62911904  0.47982179  0.40408559    -0.19400
H462        H  0.65045729  0.49962219  0.34395339     0.18300
H463        H  0.80805110  0.56208950  0.41720981     0.18300
F464        F  0.82989679  0.58070861  0.35655065    -0.19400
C465        C  0.72496202  0.52492449  0.86921740    -0.20800
C466        C  0.77074385  0.54182222  0.84857498    -0.08900
C467        C  0.82072541  0.56674496  0.86199265     0.30000
C468        C  0.82546597  0.57234445  0.89530537    -0.20800
C469        C  0.78111725  0.55235456  0.91618209    -0.08900
C470        C  0.73018087  0.52949476  0.90267517     0.30000
F471        F  0.68656107  0.50897580  0.92178334    -0.19400
H472        H  0.68624329  0.50481400  0.85966764     0.18300
H473        H  0.86536648  0.58995569  0.90490676     0.18300
F474        F  0.86629813  0.58311822  0.84320449    -0.19400
C475        C  0.76751652  0.57066144  0.65037945    -0.20800
C476        C  0.78325616  0.51571872  0.66404746    -0.08900
C477        C  0.79568528  0.47087301  0.64329449     0.30000
C478        C  0.78827077  0.47964260  0.61003073    -0.20800
C479        C  0.76859703  0.53314857  0.59643560    -0.08900
C480        C  0.76083231  0.57962225  0.61681295     0.30000
F481        F  0.74378819  0.63281600  0.60454207    -0.19400
H482        H  0.75848491  0.60605512  0.66569194     0.18300
H483        H  0.79455162  0.44310966  0.59507850     0.18300
F484        F  0.81137168  0.41690897  0.65510507    -0.19400
C485        C  0.72233878  0.09304261  0.85740938    -0.20800
C486        C  0.75253577  0.05634513  0.83743791    -0.08900
C487        C  0.78170509  0.00792897  0.85186660     0.30000
C488        C  0.78356010  0.99895992  0.88556595    -0.20800
C489        C  0.75664919  0.03812347  0.90557553    -0.08900
C490        C  0.72445215  0.08428719  0.89102146     0.30000
F491        F  0.69708543  0.12261479  0.90923123    -0.19400
H492        H  0.69897792  0.13040842  0.84707130     0.18300
H493        H  0.80865799  0.96289872  0.89603317     0.18300
F494        F  0.81025931  0.97052601  0.83360608    -0.19400
C495        C  0.80899965  0.05169303  0.63286660    -0.20800
C496        C  0.76776039  0.03132604  0.65556887    -0.08900
C497        C  0.71874164  0.00113223  0.64463848     0.30000
C498        C  0.71012282  0.99401808  0.61168548    -0.20800
C499        C  0.74920478  0.01806137  0.58878810    -0.08900
C500        C  0.79947345  0.04602484  0.59975705     0.30000
F501        F  0.83818281  0.06983131  0.57849838    -0.19400
H502        H  0.84688007  0.07571259  0.64055423     0.18300
H503        H  0.67065088  0.97271140  0.60393911     0.18300
F504        F  0.67749966  0.98129828  0.66555914    -0.19400
C505        C  0.28890468  0.09223216  0.89263706    -0.20800
C506        C  0.26141482  0.04120896  0.90491022    -0.08900
C507        C  0.24801924  0.99727503  0.88344889     0.30000
C508        C  0.25818553  0.00639880  0.85025296    -0.20800
C509        C  0.28232430  0.05911418  0.83776089    -0.08900
C510        C  0.29936062  0.10121247  0.85960984     0.30000
F511        F  0.32206349  0.15328479  0.84891973    -0.19400
H512        H  0.29944566  0.12691789  0.90840530     0.18300
H513        H  0.24469569  0.97323761  0.83413737     0.18300
F514        F  0.22123175  0.94719112  0.89406447    -0.19400
C515        C  0.29353483  0.98349618  0.60983114    -0.20800
C516        C  0.25695150  0.01378414  0.58734475    -0.08900
C517        C  0.21378902  0.04967668  0.59892275     0.30000
C518        C  0.21074957  0.05874903  0.63199276    -0.20800
C519        C  0.25117165  0.03298656  0.65410741    -0.08900
C520        C  0.29126209  0.99341197  0.64277936     0.30000
F521        F  0.33037809  0.96669903  0.66319249    -0.19400
H522        H  0.32710408  0.95530751  0.60166780     0.18300
H523        H  0.17901538  0.08912633  0.63998596     0.18300
F524        F  0.17635240  0.07811852  0.57819360    -0.19400
C525        C  0.31032824  0.51336228  0.87121294    -0.20800
C526        C  0.27712093  0.54243857  0.84665515    -0.08900
C527        C  0.23571847  0.58307258  0.85538524     0.30000
C528        C  0.22516375  0.59131423  0.88792355    -0.20800
C529        C  0.25466958  0.55833786  0.91244473    -0.08900
C530        C  0.29885622  0.52067740  0.90380757     0.30000
F531        F  0.32885804  0.48869738  0.92677309    -0.19400
H532        H  0.34247580  0.48172705  0.86525335     0.18300
H533        H  0.19073498  0.62047385  0.89385850     0.18300
F534        F  0.20302743  0.61241828  0.83256379    -0.19400
C535        C  0.22315393  0.50133234  0.60829272    -0.20800
C536        C  0.26742172  0.53645162  0.59465675    -0.08900
C537        C  0.30330399  0.56810567  0.61539641     0.30000
C538        C  0.29730108  0.56168796  0.64888717    -0.20800
C539        C  0.25529479  0.52402823  0.66264958    -0.08900
C540        C  0.21655698  0.49566627  0.64188882     0.30000
F541        F  0.17363702  0.46058550  0.65401413    -0.19400
H542        H  0.19465685  0.47692094  0.59299416     0.18300
H543        H  0.32771260  0.58399702  0.66411685     0.18300
F544        F  0.34710840  0.60231765  0.60353920    -0.19400
loop_ 
_geom_bond_atom_site_label_1 
_geom_bond_atom_site_label_2 
_geom_bond_distance 
_geom_bond_site_symmetry_2 
_ccdc_geom_bond_type 
In1           O3   2.316       .  S
In1           O4   2.199       .  S
In1          O12   2.259       .  S
In1           O6   2.272       .  S
In1           O8   2.243       .  S
In1           O9   2.210       .  S
In1          O10   2.282       .  S
In1          O13   2.287       .  S
C2            O8   1.257       .  A
C2           O10   1.267       .  A
C2          C539   1.491       .  S
O3           C11   1.263       .  A
O4           C11   1.256       .  A
C5           O12   1.256       .  A
C5            O6   1.261       .  A
C5          C526   1.488       .  S
C7            O9   1.261       .  A
C7           O13   1.264       .  A
C7           C38   1.486       .  S
C11          C16   1.490       .  S
C14          C68   1.496       .  S
C14          C15   1.396       .  A
C14          C19   1.420       .  A
C15          C16   1.394       .  A
C15          H34   1.085       .  S
C16          C17   1.416       .  A
C17          C18   1.430       .  A
C17          C24   1.405       .  A
C18          C19   1.430       .  A
C18          C23   1.424       .  A
C19          C20   1.405       .  A
C20          C21   1.399       .  A
C20          H30   1.081       .  S
C21          C22   1.406       .  A
C21          H31   1.081       .  S
C22          C23   1.429       .  A
C22          C29   1.420       .  A
C23          C26   1.428       .  A
C24          C25   1.395       .  A
C24          H32   1.081       .  S
C25          C26   1.403       .  A
C25          H33   1.081       .  S
C26          C27   1.413       .  A
C27          C94   1.481       .  S
C27          C28   1.390       .  A
C28          C29   1.394       .  A
C28          H35   1.085       .  S
C29          C81   1.487       .  S
C36          C64   1.484       .  S
C36          C37   1.392       .  A
C36          C41   1.416       .  A
C37          C38   1.395       .  A
C37          H56   1.086       .  S
C38          C39   1.418       .  A
C39          C40   1.428       .  A
C39          C46   1.405       .  A
C40          C41   1.429       .  A
C40          C45   1.423   1_455  A
C41          C42   1.404       .  A
C42          C43   1.397   1_455  A
C42          H52   1.083       .  S
C43          C44   1.405       .  A
C43          H53   1.081       .  S
C44          C45   1.427       .  A
C44          C51   1.414       .  A
C45          C48   1.429       .  A
C46          C47   1.397   1_455  A
C46          H54   1.082       .  S
C47          C48   1.405       .  A
C47          H55   1.081       .  S
C48          C49   1.418       .  A
C49          C90   1.485       .  S
C49          C50   1.395       .  A
C50          C51   1.390       .  A
C50          H57   1.085       .  S
C51          C77   1.481       .  S
In58         O60   2.314       .  S
In58         O61   2.207       .  S
In58         O69   2.287       .  S
In58         O63   2.251       .  S
In58         O65   2.293       .  S
In58         O66   2.209       .  S
In58         O67   2.245       .  S
In58         O70   2.310       .  S
C59          O65   1.267       .  A
C59          O67   1.258       .  A
C59         C509   1.494       .  S
O60          C68   1.265       .  A
O61          C68   1.259       .  A
C62          O69   1.264       .  A
C62          O63   1.255       .  A
C62         C519   1.491       .  S
C64          O66   1.257       .  A
C64          O70   1.262       .  A
In71         O73   2.294       .  S
In71         O74   2.213       .  S
In71         O82   2.290       .  S
In71         O76   2.234       .  S
In71         O78   2.264       .  S
In71         O79   2.224       .  S
In71         O80   2.258       .  S
In71         O83   2.298       .  S
C72          O78   1.259       .  A
C72          O80   1.256       .  A
C72         C496   1.485       .  S
O73          C81   1.262       .  A
O74          C81   1.260       .  A
C75          O82   1.268       .  A
C75          O76   1.257       .  A
C75         C486   1.490       .  S
C77          O79   1.258       .  A
C77          O83   1.262       .  A
In84         O86   2.294       .  S
In84         O87   2.208       .  S
In84         O95   2.202       .  S
In84         O89   2.299       .  S
In84         O91   2.252       .  S
In84         O92   2.208       .  S
In84         O93   2.266       .  S
In84         O96   2.288       .  S
C85          O91   1.258       .  A
C85          O93   1.262       .  A
C85         C466   1.488       .  S
O86          C94   1.262       .  A
O87          C94   1.259       .  A
C88          O95   1.254       .  A
C88          O89   1.270       .  A
C88         C476   1.486       .  S
C90          O92   1.261       .  A
C90          O96   1.264       .  A
In97         O99   2.302       .  S
In97        O100   2.212       .  S
In97        O108   2.257       .  S
In97        O102   2.253       .  S
In97        O104   2.211       .  S
In97        O105   2.200       .  S
In97        O106   2.280       .  S
In97        O109   2.311       .  S
C98         O104   1.256       .  A
C98         O106   1.268       .  A
C98         C459   1.483       .  S
O99         C107   1.263       .  A
O100        C107   1.261       .  A
C101        O108   1.262       .  A
C101        O102   1.256       .  A
C101        C479   1.485       .  S
C103        O105   1.259       .  A
C103        O109   1.261       .  A
C103        C173   1.484       .  S
C107        C125   1.493       .  S
In110       O112   2.323       .  S
In110       O113   2.187       .  S
In110       O121   2.233       .  S
In110       O115   2.297       .  S
In110       O117   2.239       .  S
In110       O118   2.201       .  S
In110       O119   2.282       .  S
In110       O122   2.297       .  S
C111        O117   1.254       .  A
C111        O119   1.265       .  A
C111        C446   1.486       .  S
O112        C120   1.265       .  A
O113        C120   1.259       .  A
C114        O121   1.254       .  A
C114        O115   1.266       .  A
C114        C536   1.491       .  S
C116        O118   1.260       .  A
C116        O122   1.265       .  A
C116        C123   1.481       .  S
C120        C171   1.492       .  S
C123        C124   1.391       .  A
C123        C128   1.413       .  A
C124        C125   1.394       .  A
C124        H143   1.086       .  S
C125        C126   1.422       .  A
C126        C127   1.432       .  A
C126        C133   1.405       .  A
C127        C128   1.427       .  A
C127        C132   1.425       .  A
C128        C129   1.404       .  A
C129        C130   1.395       .  A
C129        H139   1.081       .  S
C130        C131   1.405       .  A
C130        H140   1.080       .  S
C131        C132   1.432       .  A
C131        C138   1.420       .  A
C132        C135   1.427       .  A
C133        C134   1.398       .  A
C133        H141   1.081       .  S
C134        C135   1.407       .  A
C134        H142   1.081       .  S
C135        C136   1.417       .  A
C136        C164   1.486       .  S
C136        C137   1.394       .  A
C137        C138   1.392       .  A
C137        H144   1.082       .  S
C138        C155   1.493       .  S
In145       O147   2.297       .  S
In145       O148   2.211       .  S
In145       O156   2.237   1_545  S
In145       O150   2.282       .  S
In145       O152   2.238       .  S
In145       O153   2.216   1_545  S
In145       O154   2.274   1_545  S
In145       O157   2.294   1_545  S
C146        O152   1.256       .  A
C146        O154   1.265   1_545  A
C146        C436   1.487       .  S
O147        C155   1.261       .  A
O148        C155   1.260       .  A
C149        O156   1.256   1_545  A
C149        O150   1.266       .  A
C149        C516   1.488       .  S
C151        O153   1.259       .  A
C151        O157   1.260       .  A
C151        C186   1.496       .  S
In158       O160   2.302   1_545  S
In158       O161   2.210       .  S
In158       O169   2.284       .  S
In158       O163   2.228   1_545  S
In158       O165   2.229       .  S
In158       O166   2.197       .  S
In158       O167   2.282       .  S
In158       O170   2.295       .  S
C159        O165   1.256       .  A
C159        O167   1.268       .  A
C159        C426   1.490       .  S
O160        C168   1.262       .  A
O161        C168   1.259   1_545  A
C162        O169   1.266       .  A
C162        O163   1.256   1_545  A
C162        C499   1.486       .  S
C164        O166   1.258       .  A
C164        O170   1.262       .  A
C168        C184   1.501       .  S
C171        C172   1.392       .  A
C171        C176   1.421       .  A
C172        C173   1.388       .  A
C172        H191   1.087       .  S
C173        C174   1.416       .  A
C174        C175   1.429       .  A
C174        C181   1.403       .  A
C175        C176   1.432       .  A
C175        C180   1.427       .  A
C176        C177   1.403       .  A
C177        C178   1.398       .  A
C177        H187   1.081       .  S
C178        C179   1.408       .  A
C178        H188   1.080       .  S
C179        C180   1.429       .  A
C179        C186   1.421       .  A
C180        C183   1.432       .  A
C181        C182   1.396       .  A
C181        H189   1.081       .  S
C182        C183   1.407       .  A
C182        H190   1.081       .  S
C183        C184   1.423       .  A
C184        C185   1.398       .  A
C185        C186   1.397       .  A
C185        H192   1.081       .  S
C193        C282   1.502       .  S
C193        C194   1.396       .  A
C193        C198   1.425       .  A
C194        C195   1.395       .  A
C194        H213   1.083       .  S
C195        C273   1.488       .  S
C195        C196   1.416       .  A
C196        C197   1.429       .  A
C196        C203   1.405       .  A
C197        C198   1.430       .  A
C197        C202   1.427       .  A
C198        C199   1.408       .  A
C199        C200   1.400       .  A
C199        H209   1.080       .  S
C200        C201   1.404       .  A
C200        H210   1.082       .  S
C201        C202   1.431       .  A
C201        C208   1.423       .  A
C202        C205   1.429       .  A
C203        C204   1.396       .  A
C203        H211   1.083       .  S
C204        C205   1.405       .  A
C204        H212   1.081       .  S
C205        C206   1.415       .  A
C206        C243   1.482       .  S
C206        C207   1.389       .  A
C207        C208   1.392       .  A
C207        H214   1.086       .  S
C208        C260   1.492       .  S
C215        C286   1.486       .  S
C215        C216   1.391       .  A
C215        C220   1.420       .  A
C216        C217   1.391       .  A
C216        H235   1.085       .  S
C217        C269   1.488       .  S
C217        C218   1.417       .  A
C218        C219   1.431       .  A
C218        C225   1.404       .  A
C219        C220   1.428       .  A
C219        C224   1.425   1_655  A
C220        C221   1.406       .  A
C221        C222   1.402   1_655  A
C221        H231   1.082       .  S
C222        C223   1.407       .  A
C222        H232   1.081       .  S
C223        C224   1.432       .  A
C223        C230   1.426       .  A
C224        C227   1.426       .  A
C225        C226   1.395   1_655  A
C225        H233   1.079       .  S
C226        C227   1.404       .  A
C226        H234   1.081       .  S
C227        C228   1.412       .  A
C228        C247   1.479       .  S
C228        C229   1.390       .  A
C229        C230   1.395       .  A
C229        H236   1.085       .  S
C230        C256   1.496       .  S
In237       O239   2.294       .  S
In237       O240   2.205       .  S
In237       O248   2.268   1_565  S
In237       O242   2.235       .  S
In237       O244   2.276   1_565  S
In237       O245   2.202       .  S
In237       O246   2.233       .  S
In237       O249   2.296       .  S
C238        O244   1.265       .  A
C238        O246   1.255   1_545  A
C238        C439   1.485       .  S
O239        C247   1.264       .  A
O240        C247   1.259       .  A
C241        O248   1.266       .  A
C241        O242   1.256   1_545  A
C241        C416   1.486       .  S
C243        O245   1.259       .  A
C243        O249   1.263       .  A
In250       O252   2.311       .  S
In250       O253   2.211       .  S
In250       O261   2.276       .  S
In250       O255   2.229       .  S
In250       O257   2.278       .  S
In250       O258   2.218       .  S
In250       O259   2.226       .  S
In250       O262   2.305       .  S
C251        O257   1.265       .  A
C251        O259   1.255       .  A
C251        C449   1.485       .  S
O252        C260   1.261       .  A
O253        C260   1.260       .  A
C254        O261   1.265       .  A
C254        O255   1.256       .  A
C254        C406   1.484       .  S
C256        O258   1.261       .  A
C256        O262   1.261       .  A
In263       O265   2.298       .  S
In263       O266   2.215       .  S
In263       O274   2.293   1_565  S
In263       O268   2.221       .  S
In263       O270   2.272   1_565  S
In263       O271   2.190       .  S
In263       O272   2.238       .  S
In263       O275   2.307       .  S
C264        O270   1.266       .  A
C264        O272   1.257   1_545  A
C264        C429   1.488       .  S
O265        C273   1.262       .  A
O266        C273   1.258       .  A
C267        O274   1.270   1_565  A
C267        O268   1.256       .  A
C267        C396   1.491   1_565  S
C269        O271   1.258       .  A
C269        O275   1.263       .  A
In276       O278   2.292       .  S
In276       O279   2.215       .  S
In276       O287   2.228       .  S
In276       O281   2.279       .  S
In276       O283   2.235       .  S
In276       O284   2.222       .  S
In276       O285   2.263       .  S
In276       O288   2.307       .  S
C277        O283   1.256       .  A
C277        O285   1.264       .  A
C277        C456   1.483       .  S
O278        C286   1.261       .  A
O279        C286   1.262       .  A
C280        O287   1.255       .  A
C280        O281   1.264       .  A
C280        C386   1.485       .  S
C282        O284   1.260       .  A
C282        O288   1.260       .  A
In289       O291   2.305   1_554  S
In289       O292   2.193       .  S
In289       O300   2.227   1_554  S
In289       O294   2.284   1_554  S
In289       O296   2.235       .  S
In289       O297   2.213       .  S
In289       O298   2.265       .  S
In289       O301   2.301       .  S
C290        O296   1.256       .  A
C290        O298   1.264       .  A
C290        C389   1.483       .  S
O291        C299   1.262   1_556  A
O292        C299   1.258       .  A
C293        O300   1.258       .  A
C293        O294   1.269       .  A
C293        C469   1.489       .  S
C295        O297   1.260       .  A
C295        O301   1.264       .  A
C295        C363   1.488       .  S
C299        C317   1.486   1_554  S
In302       O304   2.285   1_556  S
In302       O305   2.205       .  S
In302       O313   2.226   1_556  S
In302       O307   2.270   1_556  S
In302       O309   2.242       .  S
In302       O310   2.195       .  S
In302       O311   2.264       .  S
In302       O314   2.300   1_556  S
C303        O309   1.258       .  A
C303        O311   1.263       .  A
C303        C529   1.484       .  S
O304        C312   1.262   1_554  A
O305        C312   1.259       .  A
C306        O313   1.257       .  A
C306        O307   1.268       .  A
C306        C409   1.484       .  S
C308        O310   1.257   1_554  A
C308        O314   1.263       .  A
C308        C365   1.482       .  S
C312        C315   1.477       .  S
C315        C316   1.388   1_455  A
C315        C320   1.410       .  A
C316        C317   1.392       .  A
C316        H335   1.086       .  S
C317        C318   1.420       .  A
C318        C319   1.429       .  A
C318        C325   1.405       .  A
C319        C320   1.428   1_655  A
C319        C324   1.423       .  A
C320        C321   1.401       .  A
C321        C322   1.393       .  A
C321        H331   1.083       .  S
C322        C323   1.405       .  A
C322        H332   1.080       .  S
C323        C324   1.427   1_455  A
C323        C330   1.412       .  A
C324        C327   1.429       .  A
C325        C326   1.398       .  A
C325        H333   1.079   1_556  S
C326        C327   1.407       .  A
C326        H334   1.081       .  S
C327        C328   1.422       .  A
C328        C360   1.492       .  S
C328        C329   1.396       .  A
C329        C330   1.394   1_655  A
C329        H336   1.084       .  S
C330        C343   1.485       .  S
In337       O339   2.302   1_546  S
In337       O340   2.202   1_545  S
In337       O348   2.297   1_556  S
In337       O342   2.220   1_556  S
In337       O344   2.262   1_545  S
In337       O345   2.207       .  S
In337       O346   2.266       .  S
In337       O349   2.285       .  S
C338        O344   1.259   1_545  A
C338        O346   1.262       .  A
C338        C506   1.492       .  S
O339        C347   1.264   1_554  A
O340        C347   1.255       .  A
C341        O348   1.269       .  A
C341        O342   1.255       .  A
C341        C419   1.489       .  S
C343        O345   1.259       .  A
C343        O349   1.264       .  A
C347        C376   1.482   1_556  S
In350       O352   2.295       .  S
In350       O353   2.213   1_554  S
In350       O361   2.276   1_545  S
In350       O355   2.245       .  S
In350       O357   2.244   1_544  S
In350       O358   2.228       .  S
In350       O359   2.277   1_554  S
In350       O362   2.285   1_545  S
C351        O357   1.255   1_545  A
C351        O359   1.265       .  A
C351        C489   1.489       .  S
O352        C360   1.261   1_554  A
O353        C360   1.260       .  A
C354        O361   1.263   1_545  A
C354        O355   1.255       .  A
C354        C399   1.487       .  S
C356        O358   1.260   1_565  A
C356        O362   1.259       .  A
C356        C378   1.487       .  S
C363        C364   1.394       .  A
C363        C368   1.418       .  A
C364        C365   1.392   1_655  A
C364        H383   1.086       .  S
C365        C366   1.413       .  A
C366        C367   1.427   1_455  A
C366        C373   1.404       .  A
C367        C368   1.429       .  A
C367        C372   1.422       .  A
C368        C369   1.404       .  A
C369        C370   1.398       .  A
C369        H379   1.083       .  S
C370        C371   1.407       .  A
C370        H380   1.081       .  S
C371        C372   1.427       .  A
C371        C378   1.419       .  A
C372        C375   1.427   1_655  A
C373        C374   1.394       .  A
C373        H381   1.083       .  S
C374        C375   1.404       .  A
C374        H382   1.080   1_554  S
C375        C376   1.412       .  A
C376        C377   1.394   1_455  A
C377        C378   1.395       .  A
C377        H384   1.085       .  S
C385        C386   1.403       .  A
C385        C390   1.402       .  A
C385        H392   1.083       .  S
C386        C387   1.412       .  A
C387        C388   1.399       .  A
C387        F394   1.357       .  S
C388        C389   1.401       .  A
C388        H393   1.083       .  S
C389        C390   1.413       .  A
C390        F391   1.358       .  S
C395        C396   1.404       .  A
C395        C400   1.405       .  A
C395        H402   1.083       .  S
C396        C397   1.414   1_545  A
C397        C398   1.400       .  A
C397        F404   1.358       .  S
C398        C399   1.402   1_565  A
C398        H403   1.083       .  S
C399        C400   1.412       .  A
C400        F401   1.357       .  S
C405        C406   1.409       .  A
C405        C410   1.399       .  A
C405        H412   1.083       .  S
C406        C407   1.406       .  A
C407        C408   1.401       .  A
C407        F414   1.357       .  S
C408        C409   1.409       .  A
C408        H413   1.084       .  S
C409        C410   1.404       .  A
C410        F411   1.357       .  S
C415        C416   1.401       .  A
C415        C420   1.399       .  A
C415        H422   1.083       .  S
C416        C417   1.413       .  A
C417        C418   1.404       .  A
C417        F424   1.358   1_545  S
C418        C419   1.403       .  A
C418        H423   1.083       .  S
C419        C420   1.413       .  A
C420        F421   1.357       .  S
C425        C426   1.402       .  A
C425        C430   1.403       .  A
C425        H432   1.083   1_545  S
C426        C427   1.414       .  A
C427        C428   1.402       .  A
C427        F434   1.357       .  S
C428        C429   1.402       .  A
C428        H433   1.083       .  S
C429        C430   1.414       .  A
C430        F431   1.357   1_545  S
C435        C436   1.411       .  A
C435        C440   1.403       .  A
C435        H442   1.082       .  S
C436        C437   1.404   1_545  A
C437        C438   1.400       .  A
C437        F444   1.357       .  S
C438        C439   1.409   1_565  A
C438        H443   1.082       .  S
C439        C440   1.405       .  A
C440        F441   1.358       .  S
C445        C446   1.410       .  A
C445        C450   1.402       .  A
C445        H452   1.083       .  S
C446        C447   1.404       .  A
C447        C448   1.400       .  A
C447        F454   1.357       .  S
C448        C449   1.409       .  A
C448        H453   1.083       .  S
C449        C450   1.405       .  A
C450        F451   1.358       .  S
C455        C456   1.401       .  A
C455        C460   1.396       .  A
C455        H462   1.084       .  S
C456        C457   1.413       .  A
C457        C458   1.402       .  A
C457        F464   1.357       .  S
C458        C459   1.402       .  A
C458        H463   1.084       .  S
C459        C460   1.412       .  A
C460        F461   1.358       .  S
C465        C466   1.409       .  A
C465        C470   1.404       .  A
C465        H472   1.083       .  S
C466        C467   1.406       .  A
C467        C468   1.400       .  A
C467        F474   1.358       .  S
C468        C469   1.409       .  A
C468        H473   1.083       .  S
C469        C470   1.406       .  A
C470        F471   1.357       .  S
C475        C476   1.404       .  A
C475        C480   1.406       .  A
C475        H482   1.083       .  S
C476        C477   1.413       .  A
C477        C478   1.395       .  A
C477        F484   1.358       .  S
C478        C479   1.401       .  A
C478        H483   1.083       .  S
C479        C480   1.413       .  A
C480        F481   1.357       .  S
C485        C486   1.410       .  A
C485        C490   1.401       .  A
C485        H492   1.083       .  S
C486        C487   1.406       .  A
C487        C488   1.405   1_545  A
C487        F494   1.357   1_545  S
C488        C489   1.411   1_565  A
C488        H493   1.083       .  S
C489        C490   1.404       .  A
C490        F491   1.357       .  S
C495        C496   1.409       .  A
C495        C500   1.404       .  A
C495        H502   1.084       .  S
C496        C497   1.406       .  A
C497        C498   1.400   1_545  A
C497        F504   1.358   1_545  S
C498        C499   1.409   1_565  A
C498        H503   1.084       .  S
C499        C500   1.404       .  A
C500        F501   1.357       .  S
C505        C506   1.403       .  A
C505        C510   1.401       .  A
C505        H512   1.083       .  S
C506        C507   1.413   1_545  A
C507        C508   1.407   1_565  A
C507        F514   1.357       .  S
C508        C509   1.406       .  A
C508        H513   1.083   1_545  S
C509        C510   1.412       .  A
C510        F511   1.357       .  S
C515        C516   1.409   1_565  A
C515        C520   1.402       .  A
C515        H522   1.083       .  S
C516        C517   1.405       .  A
C517        C518   1.404       .  A
C517        F524   1.357       .  S
C518        C519   1.411       .  A
C518        H523   1.083       .  S
C519        C520   1.406   1_545  A
C520        F521   1.357       .  S
C525        C526   1.410       .  A
C525        C530   1.404       .  A
C525        H532   1.083       .  S
C526        C527   1.406       .  A
C527        C528   1.401       .  A
C527        F534   1.357       .  S
C528        C529   1.407       .  A
C528        H533   1.083       .  S
C529        C530   1.405       .  A
C530        F531   1.358       .  S
C535        C536   1.404       .  A
C535        C540   1.406       .  A
C535        H542   1.083       .  S
C536        C537   1.413       .  A
C537        C538   1.401       .  A
C537        F544   1.357       .  S
C538        C539   1.402       .  A
C538        H543   1.083       .  S
C539        C540   1.414       .  A
C540        F541   1.357       .  S
