geometry optimzed in LAMMPS
_audit_creation_date              2020-11-30 
_audit_creation_method            'lammps2cif' 
_symmetry_space_group_name_H-M    'P1' 
_symmetry_Int_Tables_number       1 
_symmetry_cell_setting            triclinic 
loop_ 
_symmetry_equiv_pos_as_xyz 
  x,y,z 
_cell_length_a                    44.86390049 
_cell_length_b                    44.78765530061902 
_cell_length_c                    44.74813980321336 
_cell_angle_alpha                 90.00949413368295 
_cell_angle_beta                  90.05308774637345 
_cell_angle_gamma                 90.00500117662543 
loop_ 
_atom_site_label 
_atom_site_type_symbol 
_atom_site_fract_x 
_atom_site_fract_y 
_atom_site_fract_z 
_atom_site_charge 
N1          N  0.01879002  0.25990525  0.26016834    -0.02800
C2          C  0.02494290  0.23067269  0.26502690    -0.00200
C3          C  0.03318056  0.21689924  0.23864451    -0.23100
C4          C  0.03266930  0.23849837  0.21690611    -0.23300
C5          C  0.02403534  0.26467991  0.23073393    -0.00300
H6          H  0.03892814  0.19363486  0.23556988     0.13400
H7          H  0.03800552  0.23548712  0.19351771     0.13500
O8          O  0.99652802  0.40940738  0.44666905    -0.85800
O9          O  0.00135346  0.57924604  0.44454731    -0.86000
O10         O  0.95138482  0.49588579  0.40849262    -0.87700
O11         O  0.04764649  0.49195074  0.40856693    -0.86400
O12         O  0.08440829  0.49159415  0.44429390    -0.86000
O13         O  0.91455589  0.49697448  0.44383876    -0.87400
O14         O  0.00141217  0.54288118  0.40856751    -0.85900
O15         O  0.99760189  0.44453005  0.40963278    -0.85500
Zr16       Zr  0.99942717  0.49405062  0.43331629     2.84300
O17         O  0.03025568  0.52369522  0.46333799    -1.07400
O18         O  0.96806947  0.46488329  0.46322220    -1.08200
C19         C  0.99694459  0.41713821  0.41898135     1.07300
C20         C  0.00194761  0.57053466  0.41698916     1.07200
C21         C  0.92373186  0.49712579  0.41636694     1.10200
C22         C  0.07523080  0.49102808  0.41680116     1.08000
H23         H  0.95754708  0.53779835  0.45055178     0.33500
O24         O  0.96953306  0.52495269  0.46311955    -1.28400
H25         H  0.04120066  0.45059978  0.45132803     0.33200
O26         O  0.02928048  0.46373406  0.46359552    -1.30100
O27         O  0.00197927  0.57961533  0.54180543    -0.85800
O28         O  0.99792631  0.40984716  0.54175963    -0.87300
O29         O  0.91511618  0.54486891  0.49402907    -0.85900
O30         O  0.08525368  0.54215771  0.49273932    -0.86000
O31         O  0.08248588  0.44321851  0.49572757    -0.85700
O32         O  0.91305313  0.44703284  0.49327582    -0.85500
O33         O  0.95148108  0.49416425  0.57838694    -0.85800
O34         O  0.04762503  0.49593159  0.57860321    -0.85300
O35         O  0.91448432  0.49539481  0.54281885    -0.86400
O36         O  0.08455672  0.49450044  0.54310371    -0.85500
O37         O  0.95235134  0.57981152  0.49395997    -0.85900
O38         O  0.94963048  0.41140573  0.49438395    -0.85700
O39         O  0.04474265  0.40876416  0.49472277    -0.85300
O40         O  0.04886169  0.57830945  0.49092526    -0.85700
O41         O  0.00010736  0.54390295  0.57830020    -0.86000
O42         O  0.00079162  0.44559631  0.57824446    -0.87300
Zr43       Zr  0.00035454  0.55445591  0.49319340     2.83100
Zr44       Zr  0.99796080  0.43531767  0.49401145     2.83500
Zr45       Zr  0.93840913  0.49563118  0.49342552     2.84100
Zr46       Zr  0.06036936  0.49334557  0.49365600     2.83400
Zr47       Zr  0.99958712  0.49489253  0.55379853     2.84200
O48         O  0.02939247  0.46413759  0.52407144    -1.07900
O49         O  0.96949221  0.52528952  0.52359515    -1.07400
C50         C  0.00131704  0.57144526  0.56953196     1.07200
C51         C  0.99950354  0.41807873  0.56931426     1.09900
C52         C  0.92458001  0.57212403  0.49414445     1.07400
C53         C  0.07625451  0.56960031  0.49146123     1.07800
C54         C  0.07245927  0.41606964  0.49598846     1.07400
C55         C  0.92208451  0.41957499  0.49392627     1.06900
C56         C  0.92390523  0.49416047  0.57018770     1.07300
C57         C  0.07521666  0.49582319  0.57050491     1.06900
H58         H  0.95588387  0.45295011  0.53664448     0.33500
O59         O  0.96825899  0.46545073  0.52410345    -1.29000
H60         H  0.04288684  0.53682009  0.53572148     0.33600
O61         O  0.03033945  0.52424399  0.52341797    -1.30400
N62         N  0.03225742  0.72928489  0.72876938    -0.02800
C63         C  0.03939726  0.72540882  0.75802139    -0.00200
C64         C  0.04577885  0.75248570  0.77138195    -0.23100
C65         C  0.04195269  0.77392948  0.74986265    -0.23300
C66         C  0.03352969  0.75915103  0.72413102    -0.00300
H67         H  0.05089250  0.75635340  0.79470655     0.13400
H68         H  0.04405129  0.79782009  0.75285047     0.13500
N69         N  0.98613791  0.25992895  0.72921490    -0.02800
C70         C  0.97904320  0.26635762  0.75798821    -0.00200
C71         C  0.97478012  0.24060090  0.77434511    -0.23100
C72         C  0.97932827  0.21728090  0.75510820    -0.23300
C73         C  0.98624719  0.22965854  0.72769582    -0.00300
H74         H  0.97021559  0.23900375  0.79803838     0.13400
H75         H  0.97802770  0.19376824  0.76053473     0.13500
N76         N  0.00653916  0.73157140  0.25866416    -0.02800
C77         C  0.00238191  0.76123087  0.26287014    -0.00200
C78         C  0.00588759  0.77653257  0.23631002    -0.23100
C79         C  0.01223203  0.75557179  0.21490995    -0.23300
C80         C  0.01261015  0.72816498  0.22915168    -0.00300
H81         H  0.00404667  0.80038734  0.23291480     0.13400
H82         H  0.01547085  0.75977936  0.19132018     0.13500
O83         O  0.99911966  0.04554739  0.41107823    -0.85800
O84         O  0.00212972  0.04299644  0.58111995    -0.86000
O85         O  0.95255518  0.08019765  0.49831332    -0.87700
O86         O  0.04899557  0.07815482  0.49593092    -0.86400
O87         O  0.08451773  0.04141646  0.49580827    -0.86000
O88         O  0.91552344  0.04496476  0.49736286    -0.87400
O89         O  0.00226758  0.07844573  0.54415717    -0.85900
O90         O  0.99993521  0.07998781  0.44896982    -0.85500
Zr91       Zr  0.00026768  0.05397473  0.49621410     2.84300
O92         O  0.03057017  0.02344659  0.52583656    -1.07400
O93         O  0.96910804  0.02543333  0.46560937    -1.08200
C94         C  0.99992635  0.07273457  0.42110315     1.07300
C95         C  0.00273643  0.07040402  0.57175320     1.07200
C96         C  0.92484886  0.07230964  0.49849191     1.10200
C97         C  0.07635553  0.06913988  0.49611245     1.08000
H98         H  0.95823331  0.03712511  0.53957111     0.33500
O99         O  0.97018923  0.02447269  0.52687342    -1.28400
H100        H  0.04197705  0.03693522  0.45252944     0.33200
O101        O  0.02938246  0.02433063  0.46468370    -1.30100
O102        O  0.00224036  0.94428376  0.58013094    -0.85800
O103        O  0.99675785  0.94607369  0.40985271    -0.87300
O104        O  0.91535351  0.99572091  0.54460809    -0.85900
O105        O  0.08491193  0.99018657  0.54130862    -0.86000
O106        O  0.08344952  0.99390088  0.44608128    -0.85700
O107        O  0.91403489  0.99787253  0.44849011    -0.85500
O108        O  0.94815498  0.91091749  0.49543306    -0.85800
O109        O  0.04487965  0.90829645  0.49338672    -0.85300
O110        O  0.91246556  0.94725125  0.49547329    -0.86400
O111        O  0.08205892  0.94334699  0.49205989    -0.85500
O112        O  0.95129288  0.99286642  0.58120456    -0.85900
O113        O  0.94879325  0.99746085  0.41083883    -0.85700
O114        O  0.04766646  0.99557099  0.40950052    -0.85300
O115        O  0.05051297  0.99110253  0.57922538    -0.85700
O116        O  0.99830260  0.90922491  0.54280764    -0.86000
O117        O  0.99607969  0.91077064  0.44693211    -0.87300
Zr118      Zr  0.00042879  0.99374571  0.55668831     2.83100
Zr119      Zr  0.99833294  0.99542816  0.43404114     2.83500
Zr120      Zr  0.93910216  0.99554301  0.49626985     2.84100
Zr121      Zr  0.05892225  0.99301706  0.49415150     2.83400
Zr122      Zr  0.99730771  0.93481203  0.49499735     2.84200
O123        O  0.02772624  0.96400377  0.46398351    -1.07900
O124        O  0.96862268  0.96473411  0.52653661    -1.07400
C125        C  0.00094152  0.91708203  0.57041932     1.07200
C126        C  0.99596135  0.91869761  0.41927559     1.09900
C127        C  0.92388180  0.99435452  0.57205934     1.07400
C128        C  0.07755021  0.98927043  0.56910140     1.07800
C129        C  0.07519760  0.99528808  0.41853624     1.07400
C130        C  0.92166827  0.99826217  0.42072198     1.06900
C131        C  0.92061652  0.91944328  0.49519232     1.07300
C132        C  0.07263561  0.91601346  0.49268523     1.06900
H133        H  0.95490812  0.95350470  0.45256985     0.33500
O134        O  0.96791355  0.96560189  0.46482321    -1.29000
H135        H  0.04141183  0.95033527  0.53655922     0.33600
O136        O  0.02890173  0.96347543  0.52489380    -1.30400
N137        N  0.23376105  0.22970909  0.50699325    -0.02800
C138        C  0.23131724  0.25918435  0.51373164    -0.00200
C139        C  0.25922440  0.27190801  0.51685254    -0.23100
C140        C  0.27959498  0.24965955  0.51169192    -0.23300
C141        C  0.26343309  0.22415234  0.50561066    -0.00300
H142        H  0.26420262  0.29517901  0.52105769     0.13400
H143        H  0.30361546  0.25188838  0.51187342     0.13500
N144        N  0.76366875  0.22895067  0.50720445    -0.02800
C145        C  0.76763638  0.25892828  0.50848322    -0.00200
C146        C  0.74074108  0.27334140  0.51242845    -0.23100
C147        C  0.71930340  0.25149614  0.51355611    -0.23300
C148        C  0.73389228  0.22452728  0.51020708    -0.00300
H149        H  0.73715439  0.29717000  0.51419884     0.13400
H150        H  0.69557082  0.25487682  0.51624150     0.13500
N151        N  0.76112453  0.75758938  0.50020277    -0.02800
C152        C  0.73214128  0.76148941  0.50796919    -0.00200
C153        C  0.71719751  0.73454892  0.50861991    -0.23100
C154        C  0.73759121  0.71307997  0.50120077    -0.23300
C155        C  0.76428840  0.72765583  0.49610084    -0.00300
H156        H  0.69380909  0.73101758  0.51337794     0.13400
H157        H  0.73356679  0.68926625  0.50027027     0.13500
N158        N  0.23299645  0.75927180  0.51350174    -0.02800
C159        C  0.22893944  0.72926451  0.51416965    -0.00200
C160        C  0.25490192  0.71490310  0.52246682    -0.23100
C161        C  0.27597845  0.73666133  0.52649222    -0.23300
C162        C  0.26219854  0.76359067  0.52042494    -0.00300
H163        H  0.25827044  0.69107018  0.52462607     0.13400
H164        H  0.29918986  0.73315638  0.53209412     0.13500
N165        N  0.73506915  0.00875429  0.25993273    -0.02800
C166        C  0.76435777  0.01559008  0.26358829    -0.00200
C167        C  0.77833497  0.01805494  0.23617914    -0.23100
C168        C  0.75713031  0.01224887  0.21487435    -0.23300
C169        C  0.73093926  0.00639957  0.22996908    -0.00300
H170        H  0.80174152  0.02231114  0.23217380     0.13400
H171        H  0.76047016  0.01197950  0.19092444     0.13500
O172        O  0.44879439  0.07922734  0.48989322    -0.85800
O173        O  0.44735429  0.90910664  0.49564408    -0.86000
O174        O  0.41262292  0.99351563  0.44304690    -0.87700
O175        O  0.41213767  0.99587677  0.53905646    -0.86400
O176        O  0.44789671  0.99668426  0.57556386    -0.86000
O177        O  0.44860212  0.99270779  0.40683689    -0.87400
O178        O  0.41256695  0.94671323  0.49544137    -0.85900
O179        O  0.41354351  0.04222474  0.48946896    -0.85500
Zr180      Zr  0.43786083  0.99412361  0.49139173     2.84300
O181        O  0.46721226  0.96414582  0.52231504    -1.07400
O182        O  0.46789803  0.02378220  0.46116165    -1.08200
C183        C  0.42146473  0.06988559  0.48915067     1.07300
C184        C  0.42026331  0.91903928  0.49682572     1.07200
C185        C  0.42104728  0.99323233  0.41543075     1.10200
C186        C  0.42042467  0.99665544  0.56663826     1.08000
H187        H  0.45445377  0.94976680  0.44984582     0.33500
O188        O  0.46708981  0.96224908  0.46209128    -1.28400
H189        H  0.45488267  0.03779240  0.53368896     0.33200
O190        O  0.46731268  0.02509634  0.52152635    -1.30100
O191        O  0.54583633  0.90764736  0.49667853    -0.85800
O192        O  0.54726573  0.07791329  0.49165183    -0.87300
O193        O  0.49866293  0.94367196  0.40837044    -0.85900
O194        O  0.49381829  0.94732212  0.57754908    -0.86000
O195        O  0.49974806  0.04296166  0.57645400    -0.85700
O196        O  0.49510740  0.04015072  0.40646554    -0.85500
O197        O  0.58194480  0.99083693  0.44361683    -0.85800
O198        O  0.58199918  0.99395997  0.54054826    -0.85300
O199        O  0.54610978  0.99285470  0.40705097    -0.86400
O200        O  0.54591080  0.99454652  0.57667074    -0.85500
O201        O  0.49873284  0.90726984  0.44453248    -0.85900
O202        O  0.49598949  0.07752248  0.44136977    -0.85700
O203        O  0.49825587  0.07939496  0.54028337    -0.85300
O204        O  0.49417889  0.90933648  0.54342032    -0.85700
O205        O  0.58119618  0.94450724  0.49492550    -0.86000
O206        O  0.58220240  0.04062665  0.49275986    -0.87300
Zr207      Zr  0.49688954  0.93225467  0.49342027     2.83100
Zr208      Zr  0.49778120  0.05465053  0.49106695     2.83500
Zr209      Zr  0.49739317  0.99238525  0.43187917     2.84100
Zr210      Zr  0.49711198  0.99484876  0.55195748     2.83400
Zr211      Zr  0.55694080  0.99280463  0.49210708     2.84200
O212        O  0.52745410  0.02421626  0.52150269    -1.07900
O213        O  0.52701271  0.96201580  0.46251087    -1.07400
C214        C  0.57321623  0.91689615  0.49695186     1.07200
C215        C  0.57449972  0.06838574  0.49279317     1.09900
C216        C  0.49912530  0.91618569  0.41696463     1.07400
C217        C  0.49299344  0.91942621  0.57058724     1.07800
C218        C  0.49960610  0.07040325  0.56780213     1.07400
C219        C  0.49458962  0.06794278  0.41411122     1.06900
C220        C  0.57354303  0.99163127  0.41597715     1.07300
C221        C  0.57349098  0.99444886  0.56812231     1.06900
H222        H  0.54024115  0.03537996  0.44866710     0.33500
O223        O  0.52763882  0.02333495  0.46134238    -1.29000
H224        H  0.53912119  0.95123797  0.53616489     0.33600
O225        O  0.52694158  0.96328215  0.52306145    -1.30400
N226        N  0.26522283  0.98455174  0.72822617    -0.02800
C227        C  0.26950588  0.98669901  0.75812981    -0.00200
C228        C  0.24400403  0.97838043  0.77329004    -0.23100
C229        C  0.22325939  0.97088882  0.75202001    -0.23300
C230        C  0.23685873  0.97483149  0.72463090    -0.00300
H231        H  0.24092037  0.97770677  0.79726305     0.13400
H232        H  0.20041143  0.96427019  0.75603500     0.13500
N233        N  0.73252203  0.97041669  0.72652864    -0.02800
C234        C  0.76232853  0.96873410  0.72215105    -0.00200
C235        C  0.77673344  0.96127326  0.74841813    -0.23100
C236        C  0.75505205  0.95833644  0.76983118    -0.23300
C237        C  0.72824656  0.96425622  0.75586903    -0.00300
H238        H  0.80053999  0.95933381  0.75183424     0.13400
H239        H  0.75856428  0.95405457  0.79337552     0.13500
N240        N  0.26192424  0.98203063  0.25614656    -0.02800
C241        C  0.23170172  0.98348139  0.25777409    -0.00200
C242        C  0.21925566  0.97780504  0.23004515    -0.23100
C243        C  0.24243670  0.97307339  0.21067753    -0.23300
C244        C  0.26827371  0.97575212  0.22719167    -0.00300
H245        H  0.19579034  0.97747147  0.22442902     0.13400
H246        H  0.24072996  0.96943787  0.18682398     0.13500
O247        O  0.58458694  0.99314748  0.04281177    -0.85800
O248        O  0.41501951  0.99647305  0.04234774    -0.86000
O249        O  0.50131751  0.04357149  0.07768100    -0.87700
O250        O  0.49939956  0.94634495  0.07763149    -0.86400
O251        O  0.49936973  0.91011706  0.04145965    -0.86000
O252        O  0.50091331  0.08006793  0.04184033    -0.87400
O253        O  0.45218306  0.99481033  0.07750897    -0.85900
O254        O  0.54770248  0.99364506  0.07807931    -0.85500
Zr255      Zr  0.50000957  0.99491670  0.05279826     2.84300
O256        O  0.46902187  0.96542941  0.02289121    -1.07400
O257        O  0.53092467  0.02471974  0.02331968    -1.08200
C258        C  0.57535630  0.99307320  0.07025011     1.07300
C259        C  0.42457868  0.99579154  0.06965443     1.07200
C260        C  0.50137533  0.07122338  0.06934283     1.10200
C261        C  0.49947778  0.91875591  0.06914325     1.08000
H262        H  0.45799908  0.03856114  0.03594586     0.33500
O263        O  0.47002545  0.02590303  0.02335759    -1.28400
H264        H  0.54168330  0.95147603  0.03531487     0.33200
O265        O  0.52967254  0.96428655  0.02282707    -1.30100
O266        O  0.41435070  0.99745118  0.94442772    -0.85800
O267        O  0.58475222  0.99254409  0.94412673    -0.87300
O268        O  0.45353723  0.08071917  0.99204280    -0.85900
O269        O  0.45001970  0.91142263  0.99281486    -0.86000
O270        O  0.54618936  0.90929674  0.99138080    -0.85700
O271        O  0.54920015  0.07940640  0.99553446    -0.85500
O272        O  0.50094078  0.04510303  0.90798353    -0.85800
O273        O  0.49861303  0.94821066  0.90714791    -0.85300
O274        O  0.50179425  0.08048602  0.94471042    -0.86400
O275        O  0.49959319  0.91178088  0.94298319    -0.85500
O276        O  0.41603981  0.04593096  0.99265666    -0.85900
O277        O  0.58533380  0.04309490  0.99496198    -0.85700
O278        O  0.58369386  0.94420807  0.99421445    -0.85300
O279        O  0.41398421  0.94783481  0.99517929    -0.85700
O280        O  0.45110408  0.00024201  0.90873727    -0.86000
O281        O  0.54788623  0.99364420  0.90864191    -0.87300
Zr282      Zr  0.43907214  0.99635505  0.99318075     2.83100
Zr283      Zr  0.56074979  0.99409942  0.99327217     2.83500
Zr284      Zr  0.50105002  0.05524342  0.99325293     2.84100
Zr285      Zr  0.49869450  0.93521364  0.99241933     2.83400
Zr286      Zr  0.49959831  0.99628173  0.93287960     2.84200
O287        O  0.52933508  0.96532788  0.96278907    -1.07900
O288        O  0.46981565  0.02630503  0.96322023    -1.07400
C289        C  0.42359394  0.99973134  0.91715777     1.07200
C290        C  0.57549590  0.99231265  0.91671238     1.09900
C291        C  0.42581376  0.07311757  0.99217347     1.07400
C292        C  0.42268906  0.92031147  0.99434588     1.07800
C293        C  0.57384690  0.91702741  0.99290176     1.07400
C294        C  0.57655661  0.07065689  0.99594722     1.06900
C295        C  0.50162039  0.07260855  0.91691298     1.07300
C296        C  0.49941371  0.92057493  0.91541616     1.06900
H297        H  0.54376949  0.03756416  0.95061882     0.33500
O298        O  0.53113948  0.02520899  0.96297073    -1.29000
H299        H  0.45607639  0.95385699  0.94975552     0.33600
O300        O  0.46868828  0.96596284  0.96239380    -1.30400
N301        N  0.47550220  0.22853296  0.22781971    -0.02800
C302        C  0.47548159  0.25834120  0.22317469    -0.00200
C303        C  0.46661041  0.27344021  0.24851257    -0.23100
C304        C  0.46105533  0.25208084  0.26978527    -0.23300
C305        C  0.46666307  0.22473121  0.25652872    -0.00300
H306        H  0.46487477  0.29737995  0.25130705     0.13400
H307        H  0.45494643  0.25614071  0.29281877     0.13500
N308        N  0.52666842  0.75967422  0.22723609    -0.02800
C309        C  0.53347881  0.73096104  0.22059311    -0.00200
C310        C  0.54576368  0.71671022  0.24504067    -0.23100
C311        C  0.54678234  0.73739043  0.26766133    -0.23300
C312        C  0.53495309  0.76343886  0.25616467    -0.00300
H313        H  0.55232070  0.69349787  0.24648618     0.13400
H314        H  0.55426613  0.73356679  0.29033738     0.13500
N315        N  0.47932338  0.75858789  0.75984679    -0.02800
C316        C  0.47372351  0.76193912  0.73016132    -0.00200
C317        C  0.47191412  0.73444658  0.71629554    -0.23100
C318        C  0.47707146  0.71336195  0.73790823    -0.23300
C319        C  0.48167806  0.72866956  0.76427647    -0.00300
H320        H  0.46872701  0.73027913  0.69268360     0.13400
H321        H  0.47799596  0.68943027  0.73468486     0.13500
N322        N  0.47955642  0.22986319  0.75660974    -0.02800
C323        C  0.47271636  0.25916355  0.76042043    -0.00200
C324        C  0.46941779  0.27311081  0.73306769    -0.23100
C325        C  0.47456619  0.25183331  0.71164323    -0.23300
C326        C  0.48075328  0.22559582  0.72661764    -0.00300
H327        H  0.46538281  0.29661275  0.72915141     0.13400
H328        H  0.47450032  0.25523570  0.68769807     0.13500
O329        O  0.99859616  0.41078342  0.04368374    -0.85800
O330        O  0.99858128  0.58101367  0.04356034    -0.86000
O331        O  0.04509692  0.49362543  0.07895896    -0.87700
O332        O  0.94722058  0.49797377  0.07685203    -0.86400
O333        O  0.91225263  0.49689007  0.03970676    -0.86000
O334        O  0.08172363  0.49366639  0.04327341    -0.87400
O335        O  0.99826634  0.54367223  0.07866210    -0.85900
O336        O  0.99690561  0.44806580  0.07861679    -0.85500
Zr337      Zr  0.99677948  0.49581337  0.05350070     2.84300
O338        O  0.96750938  0.52613802  0.02290389    -1.07400
O339        O  0.02790626  0.46581039  0.02426161    -1.08200
C340        C  0.99775122  0.42033191  0.07109630     1.07300
C341        C  0.99903761  0.57139152  0.07085786     1.07200
C342        C  0.07271638  0.49276701  0.07064445     1.10200
C343        C  0.91983952  0.49825778  0.06754688     1.08000
H344        H  0.03983553  0.53838493  0.03731673     0.33500
O345        O  0.02742153  0.52641175  0.02434590    -1.28400
H346        H  0.95458847  0.45283798  0.03532168     0.33200
O347        O  0.96741288  0.46509909  0.02308334    -1.30100
O348        O  0.00226565  0.58132069  0.94498748    -0.85800
O349        O  0.99877330  0.41113118  0.94452858    -0.87300
O350        O  0.08272938  0.54455655  0.99672907    -0.85900
O351        O  0.91306416  0.54320745  0.99568302    -0.86000
O352        O  0.91461201  0.44735088  0.99032950    -0.85700
O353        O  0.08322576  0.44857108  0.99297412    -0.85500
O354        O  0.04909243  0.49789501  0.90946426    -0.85800
O355        O  0.95212288  0.49730785  0.90689952    -0.85300
O356        O  0.08409138  0.49899848  0.94651984    -0.86400
O357        O  0.91523432  0.49633717  0.94230577    -0.85500
O358        O  0.04717099  0.58132672  0.99639795    -0.85900
O359        O  0.04819373  0.41113400  0.99462037    -0.85700
O360        O  0.94992313  0.41041758  0.99155262    -0.85300
O361        O  0.94785980  0.58085865  0.99654406    -0.85700
O362        O  0.00375131  0.54448712  0.90960775    -0.86000
O363        O  0.99961387  0.44820665  0.90915681    -0.87300
Zr364      Zr  0.99782297  0.55736723  0.99406563     2.83100
Zr365      Zr  0.99878049  0.43485388  0.99390507     2.83500
Zr366      Zr  0.05801145  0.49638949  0.99447179     2.84100
Zr367      Zr  0.93861958  0.49577520  0.99189105     2.83400
Zr368      Zr  0.99983110  0.49642718  0.93360604     2.84200
O369        O  0.96960577  0.46557759  0.96291804    -1.07900
O370        O  0.02857690  0.52702152  0.96444444    -1.07400
C371        C  0.00477219  0.57208770  0.91768163     1.07200
C372        C  0.99894230  0.42053991  0.91716545     1.09900
C373        C  0.07459093  0.57220138  0.99736211     1.07400
C374        C  0.92067364  0.57089109  0.99774401     1.07800
C375        C  0.92261474  0.41967572  0.99021142     1.07400
C376        C  0.07535788  0.42089430  0.99351174     1.06900
C377        C  0.07647373  0.49924043  0.91865832     1.07300
C378        C  0.92440648  0.49700662  0.91487832     1.06900
H379        H  0.04195251  0.45348080  0.95140366     0.33500
O380        O  0.02916896  0.46553675  0.96385895    -1.29000
H381        H  0.95644429  0.53951858  0.94991268     0.33600
O382        O  0.96862551  0.52706248  0.96256364    -1.30400
N383        N  0.76360589  0.52706633  0.22831047    -0.02800
C384        C  0.73356619  0.52848430  0.22559470    -0.00200
C385        C  0.72030670  0.53285327  0.25307973    -0.23100
C386        C  0.74295361  0.53394377  0.27363267    -0.23300
C387        C  0.76919588  0.53000228  0.25796653    -0.00300
H388        H  0.69666097  0.53362637  0.25779280     0.13400
H389        H  0.74049487  0.53571173  0.29762861     0.13500
N390        N  0.23385147  0.50473785  0.22684988    -0.02800
C391        C  0.26276992  0.51076842  0.22058589    -0.00200
C392        C  0.27881207  0.51503146  0.24657148    -0.23100
C393        C  0.25912733  0.51152144  0.26973875    -0.23300
C394        C  0.23174699  0.50509396  0.25709925    -0.00300
H395        H  0.30261627  0.51847223  0.24847209     0.13400
H396        H  0.26437031  0.51257985  0.29332720     0.13500
N397        N  0.23670217  0.50823621  0.75898669    -0.02800
C398        C  0.23310792  0.51149832  0.72893007    -0.00200
C399        C  0.26050985  0.51174600  0.71479148    -0.23100
C400        C  0.28168074  0.50804012  0.73656894    -0.23300
C401        C  0.26654955  0.50581698  0.76330193    -0.00300
H402        H  0.26457605  0.51345630  0.69101582     0.13400
H403        H  0.30554699  0.50674248  0.73329397     0.13500
N404        N  0.76263010  0.50511669  0.75758735    -0.02800
C405        C  0.73301678  0.51126438  0.76008701    -0.00200
C406        C  0.71992110  0.51263029  0.73209569    -0.23100
C407        C  0.74196243  0.50729819  0.71169229    -0.23300
C408        C  0.76772654  0.50254613  0.72781856    -0.00300
H409        H  0.69657962  0.51606220  0.72704077     0.13400
H410        H  0.73949295  0.50666487  0.68763645     0.13500
N411        N  0.26312779  0.25972481  0.99294545    -0.02800
C412        C  0.26785997  0.22987066  0.99558081    -0.00200
C413        C  0.24130312  0.21441370  0.99379438    -0.23100
C414        C  0.21933559  0.23529724  0.98995759    -0.23300
C415        C  0.23316139  0.26289010  0.98953895    -0.00300
H416        H  0.23830963  0.19046112  0.99494211     0.13400
H417        H  0.19568071  0.23088807  0.98818344     0.13500
O418        O  0.50216218  0.44221076  0.07910744    -0.85800
O419        O  0.49903716  0.44391298  0.90938864    -0.86000
O420        O  0.45250023  0.40817475  0.99631741    -0.87700
O421        O  0.54987725  0.40794747  0.98920592    -0.86400
O422        O  0.58612175  0.44377354  0.98986426    -0.86000
O423        O  0.41631969  0.44414514  0.99642443    -0.87400
O424        O  0.49892544  0.40814398  0.94595769    -0.85900
O425        O  0.50354406  0.40714587  0.04165615    -0.85500
Zr426      Zr  0.50123074  0.43264102  0.99411094     2.84300
O427        O  0.53086111  0.46263858  0.96355290    -1.07400
O428        O  0.47116903  0.46219312  0.02501882    -1.08200
C429        C  0.50350413  0.41497948  0.06936641     1.07300
C430        C  0.49829803  0.41637410  0.91833666     1.07200
C431        C  0.42492291  0.41655350  0.99682024     1.10200
C432        C  0.57747359  0.41627098  0.98777821     1.08000
H433        H  0.45807277  0.45052335  0.95217371     0.33500
O434        O  0.47080390  0.46291657  0.96433017    -1.28400
H435        H  0.54428497  0.44920536  0.03717309     0.33200
O436        O  0.53146113  0.46176424  0.02527364    -1.30100
O437        O  0.50192106  0.54306136  0.91047428    -0.85800
O438        O  0.50185280  0.54114369  0.08042631    -0.87300
O439        O  0.41612776  0.49239385  0.94734010    -0.85900
O440        O  0.58497629  0.49594943  0.94631910    -0.86000
O441        O  0.58531288  0.49262385  0.04291301    -0.85700
O442        O  0.41675774  0.49182821  0.04312649    -0.85500
O443        O  0.45222411  0.57767626  0.99581086    -0.85800
O444        O  0.54969725  0.57632958  0.99920728    -0.85300
O445        O  0.41609281  0.54159359  0.99613465    -0.86400
O446        O  0.58554474  0.54012297  0.99832426    -0.85500
O447        O  0.45123824  0.49427385  0.91002552    -0.85900
O448        O  0.45205333  0.49202952  0.08032940    -0.85700
O449        O  0.54992264  0.49491668  0.07993538    -0.85300
O450        O  0.54939275  0.49356490  0.90934168    -0.85700
O451        O  0.50344743  0.57823430  0.94779643    -0.86000
O452        O  0.50126509  0.57682404  0.04360106    -0.87300
Zr453      Zr  0.50053633  0.49326069  0.93374419     2.83100
Zr454      Zr  0.50110308  0.49194096  0.05593750     2.83500
Zr455      Zr  0.44117779  0.49281350  0.99514388     2.84100
Zr456      Zr  0.56075042  0.49202394  0.99455222     2.83400
Zr457      Zr  0.50085153  0.55248395  0.99539626     2.84200
O458        O  0.53077035  0.52181029  0.02509959    -1.07900
O459        O  0.47049182  0.52330502  0.96446996    -1.07400
C460        C  0.50344727  0.57035978  0.92007081     1.07200
C461        C  0.50157650  0.56857840  0.07117967     1.09900
C462        C  0.42405957  0.49309636  0.91968678     1.07400
C463        C  0.57659507  0.49575130  0.91874436     1.07800
C464        C  0.57715155  0.49455762  0.07049533     1.07400
C465        C  0.42478695  0.49185085  0.07076562     1.06900
C466        C  0.42461558  0.56923894  0.99627996     1.07300
C467        C  0.57717273  0.56760632  0.00014880     1.06900
H468        H  0.45857781  0.53495584  0.03836695     0.33500
O469        O  0.47097334  0.52254339  0.02592626    -1.29000
H470        H  0.54343228  0.53556355  0.95284960     0.33600
O471        O  0.53082732  0.52277639  0.96473163    -1.30400
N472        N  0.73233986  0.72848772  0.02394049    -0.02800
C473        C  0.76178304  0.72472135  0.03018043    -0.00800
C474        C  0.77583860  0.75215083  0.03174219    -0.23100
C475        C  0.75455270  0.77341445  0.02599491    -0.23300
C476        C  0.72807850  0.75840450  0.02120480    -0.00300
H477        H  0.79940065  0.75618923  0.03499672     0.13400
H478        H  0.75813141  0.79727389  0.02464518     0.13500
N479        N  0.26546484  0.72988455  0.01758538    -0.02800
C480        C  0.27009574  0.75978144  0.01967919    -0.00200
C481        C  0.24383677  0.77442748  0.02639645    -0.23100
C482        C  0.22213002  0.75300974  0.02830607    -0.23300
C483        C  0.23587938  0.72602238  0.02272834    -0.00300
H484        H  0.24063041  0.79830843  0.02827596     0.13400
H485        H  0.19856531  0.75681827  0.03178357     0.13500
N486        N  0.73799005  0.25713402  0.97351727    -0.02800
C487        C  0.76714647  0.26132790  0.96633053    -0.00200
C488        C  0.78149075  0.23429702  0.96252072    -0.23100
C489        C  0.76066315  0.21256348  0.96730572    -0.23300
C490        C  0.73425936  0.22695793  0.97392968    -0.00300
H491        H  0.80489758  0.23075929  0.95787558     0.13400
H492        H  0.76440268  0.18870015  0.96646882     0.13500
C493        C  0.69142937  0.32405036  0.95342698    -0.01400
C494        C  0.67094581  0.32543635  0.97731274     0.07200
C495        C  0.67335428  0.30441054  0.00050911    -0.07300
C496        C  0.69565601  0.28229797  0.00014518     0.04700
C497        C  0.71539320  0.28020968  0.97565126    -0.14600
C498        C  0.71312682  0.30149185  0.95267819    -0.07900
C499        C  0.64735821  0.34901513  0.97891686     0.05600
C500        C  0.61762751  0.34149665  0.97275562    -0.09000
C501        C  0.59465378  0.36281935  0.97487526     0.00600
C502        C  0.60114076  0.39266509  0.98366792     0.00500
C503        C  0.63127879  0.40013505  0.98884234    -0.12600
C504        C  0.65408837  0.37869554  0.98692034     0.00900
C505        C  0.56482551  0.35325942  0.96736077     0.40200
C506        C  0.68418521  0.38740907  0.99433452     0.36900
C507        C  0.69063588  0.34546082  0.92934875     0.36600
C508        C  0.69907724  0.26343553  0.02601835     0.37400
N509        N  0.54090979  0.34558498  0.96140526    -0.43400
N510        N  0.70828850  0.39430523  0.00045974    -0.43900
N511        N  0.70185249  0.24860202  0.04701174    -0.41200
N512        N  0.69032454  0.36261735  0.91001802    -0.42700
H513        H  0.72833440  0.30028487  0.93390462     0.13500
H514        H  0.65821538  0.30577750  0.01933838     0.10000
H515        H  0.61233807  0.31877169  0.96624781     0.11000
H516        H  0.63718052  0.42277006  0.99498600     0.16900
C517        C  0.35012392  0.60710054  0.01341575    -0.01400
C518        C  0.35469167  0.63687146  0.00372461     0.07200
C519        C  0.38255206  0.64410541  0.99120688    -0.07300
C520        C  0.40516401  0.62257868  0.98773687     0.04700
C521        C  0.40080028  0.59289738  0.99791676    -0.14600
C522        C  0.37295462  0.58571125  0.01056944    -0.07900
C523        C  0.33107134  0.66077355  0.00665155     0.05600
C524        C  0.31782866  0.66624468  0.03467183    -0.09000
C525        C  0.29626949  0.68875761  0.03837304     0.00600
C526        C  0.28762450  0.70669244  0.01398630     0.00500
C527        C  0.30083977  0.70166957  0.98609026    -0.12600
C528        C  0.32219796  0.67893291  0.98218411     0.00900
C529        C  0.28385563  0.69391872  0.06764658     0.40200
C530        C  0.33418239  0.67438201  0.95262333     0.36900
C531        C  0.32200715  0.59752879  0.02582947     0.36600
C532        C  0.43218086  0.63154048  0.97266923     0.37400
N533        N  0.27384456  0.69830698  0.09106485    -0.43400
N534        N  0.34389065  0.67089117  0.92892955    -0.43900
N535        N  0.45375682  0.63871927  0.96046093    -0.41200
N536        N  0.29960144  0.58961813  0.03589094    -0.42700
H537        H  0.36894115  0.56320110  0.01853833     0.13500
H538        H  0.38672231  0.66682282  0.98396272     0.10000
H539        H  0.32469361  0.65321663  0.05389842     0.11000
H540        H  0.29418604  0.71539543  0.96728033     0.16900
C541        C  0.61245727  0.64426118  0.00922326    -0.01400
C542        C  0.64311696  0.63769634  0.00923937     0.07200
C543        C  0.65241010  0.60794226  0.00713167    -0.07300
C544        C  0.63172827  0.58469621  0.00422420     0.04700
C545        C  0.60065846  0.59111063  0.00370668    -0.14600
C546        C  0.59165309  0.62111970  0.00686481    -0.07900
C547        C  0.66597342  0.66137419  0.01246358     0.05600
C548        C  0.68319011  0.66208966  0.03858991    -0.09000
C549        C  0.70514494  0.68388061  0.04264404     0.00600
C550        C  0.71026285  0.70540777  0.02017016     0.00500
C551        C  0.69308116  0.70459835  0.99396284    -0.12600
C552        C  0.67108119  0.68278398  0.98992183     0.00900
C553        C  0.72119216  0.68437021  0.07058183     0.40200
C554        C  0.65437738  0.68246553  0.96233236     0.36900
C555        C  0.60181744  0.67457809  0.01192095     0.36600
C556        C  0.64350974  0.55477223  0.00176092     0.37400
N557        N  0.73387376  0.68445907  0.09311101    -0.43400
N558        N  0.64086274  0.68223316  0.94029346    -0.43900
N559        N  0.65314058  0.53088165  0.99973063    -0.41200
N560        N  0.59339919  0.69892648  0.01382831    -0.42700
H561        H  0.56817429  0.62677497  0.00742276     0.13500
H562        H  0.67606839  0.60290552  0.00750076     0.10000
H563        H  0.67918092  0.64574061  0.05602014     0.11000
H564        H  0.69711246  0.72091810  0.97654908     0.16900
C565        C  0.32661122  0.30644325  0.02146677    -0.01400
C566        C  0.33035088  0.32716906  0.99806413     0.07200
C567        C  0.31143943  0.32572427  0.97314279    -0.07300
C568        C  0.28910245  0.30390043  0.97120221     0.04700
C569        C  0.28538736  0.28300146  0.99453726    -0.14600
C570        C  0.30437100  0.28449897  0.01947481    -0.07900
C571        C  0.35439487  0.35001901  0.99873412     0.05600
C572        C  0.38355167  0.34145103  0.99175539    -0.09000
C573        C  0.40689187  0.36229426  0.99146390     0.00600
C574        C  0.40118592  0.39288429  0.99787613     0.00500
C575        C  0.37172413  0.40111322  0.00537698    -0.12600
C576        C  0.34856223  0.38002160  0.00596465     0.00900
C577        C  0.43627497  0.35110274  0.98467493     0.40200
C578        C  0.31905471  0.38935834  0.01480470     0.36900
C579        C  0.34489180  0.30782248  0.04798721     0.36600
C580        C  0.27150795  0.30235584  0.94427355     0.37400
N581        N  0.45973255  0.34161110  0.97968604    -0.43400
N582        N  0.29536575  0.39650812  0.02210066    -0.43900
N583        N  0.25773905  0.30116474  0.92242880    -0.41200
N584        N  0.35942738  0.30916510  0.06932237    -0.42700
H585        H  0.30157284  0.26859510  0.03751220     0.13500
H586        H  0.31447904  0.34142672  0.95494696     0.10000
H587        H  0.38807629  0.31824329  0.98647237     0.11000
H588        H  0.36665162  0.42410545  0.01099377     0.16900
C589        C  0.69658551  0.48547859  0.83152498    -0.01400
C590        C  0.67300228  0.50617021  0.83419326     0.07200
C591        C  0.67186237  0.53072353  0.81487036    -0.07300
C592        C  0.69253845  0.53385572  0.79179255     0.04700
C593        C  0.71520648  0.51224289  0.78793201    -0.14600
C594        C  0.71747886  0.48865124  0.80845060    -0.07900
C595        C  0.64856665  0.50248537  0.85617469     0.05600
C596        C  0.64448594  0.52463671  0.87790404    -0.09000
C597        C  0.62065988  0.52311469  0.89792693     0.00600
C598        C  0.60044095  0.49900969  0.89643759     0.00500
C599        C  0.60397853  0.47723227  0.87424205    -0.12600
C600        C  0.62783980  0.47880622  0.85411324     0.00900
C601        C  0.61652317  0.54737349  0.91876714     0.40200
C602        C  0.63019596  0.45633497  0.83111249     0.36900
C603        C  0.69939674  0.46055551  0.85177946     0.36600
C604        C  0.68936842  0.55902232  0.77183912     0.37400
N605        N  0.61306718  0.56709150  0.93509353    -0.43400
N606        N  0.63219932  0.43829575  0.81270819    -0.43900
N607        N  0.68660558  0.57905559  0.75574026    -0.41200
N608        N  0.70158726  0.44051299  0.86795087    -0.42700
H609        H  0.73455170  0.47177852  0.80551160     0.13500
H610        H  0.65401068  0.54691141  0.81713430     0.10000
H611        H  0.65980564  0.54335245  0.87897077     0.11000
H612        H  0.58832963  0.45881333  0.87289318     0.16900
C613        C  0.30685850  0.52411222  0.83459557    -0.01400
C614        C  0.32455735  0.49827964  0.83811274     0.07200
C615        C  0.31901701  0.47326185  0.82017088    -0.07300
C616        C  0.29812484  0.47459705  0.79707667     0.04700
C617        C  0.28207844  0.50117691  0.79198212    -0.14600
C618        C  0.28573870  0.52540256  0.81149908    -0.07900
C619        C  0.35030591  0.49729136  0.85883237     0.05600
C620        C  0.35032173  0.47622795  0.88192687    -0.09000
C621        C  0.37471180  0.47370030  0.90118490     0.00600
C622        C  0.39959126  0.49277411  0.89766285     0.00500
C623        C  0.40005736  0.51309852  0.87384540    -0.12600
C624        C  0.37572762  0.51535721  0.85435168     0.00900
C625        C  0.37414032  0.45040022  0.92345744     0.40200
C626        C  0.37759631  0.53578614  0.82947070     0.36900
C627        C  0.31082470  0.54976551  0.85375215     0.36600
C628        C  0.29459190  0.44891403  0.77789391     0.37400
N629        N  0.37352711  0.43141588  0.94096009    -0.43400
N630        N  0.37892027  0.55210019  0.80946655    -0.43900
N631        N  0.29183580  0.42832396  0.76251619    -0.41200
N632        N  0.31426307  0.57024318  0.86915385    -0.42700
H633        H  0.27344758  0.54588357  0.80757768     0.13500
H634        H  0.33223002  0.45319453  0.82316356     0.10000
H635        H  0.33127661  0.46156643  0.88474217     0.11000
H636        H  0.41919209  0.52758740  0.87078764     0.16900
C637        C  0.30646128  0.52661517  0.15097760    -0.01400
C638        C  0.32100515  0.49893869  0.14671085     0.07200
C639        C  0.31207134  0.47417677  0.16364118    -0.07300
C640        C  0.29075121  0.47718462  0.18619497     0.04700
C641        C  0.27771066  0.50526482  0.19180486    -0.14600
C642        C  0.28495731  0.52957648  0.17351074    -0.07900
C643        C  0.34785432  0.49613712  0.12751009     0.05600
C644        C  0.37329570  0.51304833  0.13467947    -0.09000
C645        C  0.39932959  0.51100373  0.11750459     0.00600
C646        C  0.40004639  0.49179344  0.09253223     0.00500
C647        C  0.37492412  0.47418462  0.08602399    -0.12600
C648        C  0.34907121  0.47601564  0.10331312     0.00900
C649        C  0.42436127  0.52978280  0.12519100     0.40200
C650        C  0.32393950  0.45759654  0.09513499     0.36900
C651        C  0.31413631  0.55250081  0.13334633     0.36600
C652        C  0.28492675  0.45193994  0.20539416     0.37400
N653        N  0.44442135  0.54479917  0.13143451    -0.43400
N654        N  0.30406780  0.44258285  0.08832212    -0.43900
N655        N  0.28053564  0.43187172  0.22106239    -0.41200
N656        N  0.32031911  0.57325624  0.11924788    -0.42700
H657        H  0.27521425  0.55126892  0.17805108     0.13500
H658        H  0.32328870  0.45293321  0.16065272     0.10000
H659        H  0.37272384  0.52802535  0.15372349     0.11000
H660        H  0.37533783  0.45921721  0.06694885     0.16900
C661        C  0.69103491  0.53931090  0.15393437    -0.01400
C662        C  0.67408830  0.51276204  0.15309328     0.07200
C663        C  0.67966010  0.49014633  0.17394100    -0.07300
C664        C  0.70051748  0.49436028  0.19666907     0.04700
C665        C  0.71625859  0.52151280  0.19858890    -0.14600
C666        C  0.71202422  0.54354140  0.17677021    -0.07900
C667        C  0.64915523  0.50856042  0.13192782     0.05600
C668        C  0.65156833  0.48656534  0.10984449    -0.09000
C669        C  0.62779246  0.48073814  0.09051029     0.00600
C670        C  0.60123748  0.49752198  0.09278164     0.00500
C671        C  0.59849959  0.51888352  0.11559108    -0.12600
C672        C  0.62214389  0.52430021  0.13529505     0.00900
C673        C  0.63046857  0.45619008  0.06980396     0.40200
C674        C  0.61800575  0.54529234  0.15944003     0.36900
C675        C  0.68676651  0.56256409  0.13199328     0.36600
C676        C  0.70497119  0.47082780  0.21828595     0.37400
N677        N  0.63236225  0.43618847  0.05356835    -0.43400
N678        N  0.61495639  0.56186868  0.17903734    -0.43900
N679        N  0.70872887  0.45203740  0.23562840    -0.41200
N680        N  0.68331287  0.58113541  0.11434431    -0.42700
H681        H  0.72415987  0.56443094  0.17831282     0.13500
H682        H  0.66685616  0.46961328  0.17309571     0.10000
H683        H  0.67192015  0.47360903  0.10806726     0.11000
H684        H  0.57806049  0.53162699  0.11776276     0.16900
C685        C  0.84880653  0.60161290  0.02983853    -0.01400
C686        C  0.84545312  0.62884709  0.01447589     0.07200
C687        C  0.86741765  0.63754085  0.99385824    -0.07300
C688        C  0.89246098  0.61951985  0.98830966     0.04700
C689        C  0.89570066  0.59203949  0.00340406    -0.14600
C690        C  0.87359852  0.58346425  0.02406466    -0.07900
C691        C  0.82021621  0.64952081  0.02062720     0.05600
C692        C  0.82063689  0.66627740  0.04707504    -0.09000
C693        C  0.80025589  0.68953441  0.05161105     0.00600
C694        C  0.77866099  0.69614695  0.02955133     0.00500
C695        C  0.77678864  0.67784824  0.00414019    -0.12600
C696        C  0.79745779  0.65477830  0.99946364     0.00900
C697        C  0.80248798  0.70682739  0.07876103     0.40200
C698        C  0.79558456  0.63751762  0.97229959     0.36900
C699        C  0.82700306  0.59167751  0.05138664     0.36600
C700        C  0.91372228  0.62923060  0.96620455     0.37400
N701        N  0.80430947  0.72060813  0.10056543    -0.43400
N702        N  0.79399772  0.62373723  0.95047944    -0.43900
N703        N  0.93053706  0.63723512  0.94832740    -0.41200
N704        N  0.80963468  0.58358253  0.06869520    -0.42700
H705        H  0.87583510  0.56249377  0.03597711     0.13500
H706        H  0.86501780  0.65861360  0.98215819     0.10000
H707        H  0.83786473  0.66210312  0.06357757     0.11000
H708        H  0.76044073  0.68278956  0.98697839     0.16900
C709        C  0.84620803  0.38781966  0.97331447    -0.01400
C710        C  0.84962658  0.35760128  0.98075535     0.07200
C711        C  0.87696821  0.34738877  0.99196452    -0.07300
C712        C  0.90110076  0.36694032  0.99568276     0.04700
C713        C  0.89802823  0.39742066  0.98766755    -0.14600
C714        C  0.87022786  0.40735860  0.97668487    -0.07900
C715        C  0.82534615  0.33592470  0.97572991     0.05600
C716        C  0.82513698  0.31976000  0.94898989    -0.09000
C717        C  0.80437572  0.29698934  0.94438749     0.00600
C718        C  0.78362638  0.28990324  0.96702910     0.00500
C719        C  0.78258313  0.30747532  0.99299241    -0.12600
C720        C  0.80320776  0.33057549  0.99737963     0.00900
C721        C  0.80517032  0.28082319  0.91646953     0.40200
C722        C  0.80187495  0.34802420  0.02446310     0.36900
C723        C  0.81828387  0.39913825  0.96191934     0.36600
C724        C  0.92825048  0.35499780  0.00827294     0.37400
N725        N  0.80584318  0.26791846  0.89407348    -0.43400
N726        N  0.80080094  0.36228562  0.04600162    -0.43900
N727        N  0.94991140  0.34513605  0.01829824    -0.41200
N728        N  0.79583052  0.40811409  0.95288905    -0.42700
H729        H  0.86716265  0.43050322  0.97027481     0.13500
H730        H  0.87942494  0.32399911  0.99777573     0.10000
H731        H  0.84172276  0.32448901  0.93200715     0.11000
H732        H  0.76678031  0.30212984  0.01051816     0.16900
C733        C  0.18321741  0.66314336  0.03911649    -0.01400
C734        C  0.17336086  0.65530662  0.01021355     0.07200
C735        C  0.18676078  0.66871034  0.98525117    -0.07300
C736        C  0.20883533  0.69059023  0.98885348     0.04700
C737        C  0.21851678  0.69851522  0.01780053    -0.14600
C738        C  0.20573709  0.68449663  0.04266831    -0.07900
C739        C  0.14803724  0.63437684  0.00573190     0.05600
C740        C  0.11935772  0.64301501  0.01475133    -0.09000
C741        C  0.09504256  0.62347062  0.01216175     0.00600
C742        C  0.09908742  0.59471741  0.99957906     0.00500
C743        C  0.12796584  0.58644258  0.99023255    -0.12600
C744        C  0.15228109  0.60580688  0.99341965     0.00900
C745        C  0.06682983  0.63300585  0.02436936     0.40200
C746        C  0.18164103  0.59544626  0.98519427     0.36900
C747        C  0.16976807  0.65034071  0.06545453     0.36600
C748        C  0.21907840  0.70666843  0.96282747     0.37400
N749        N  0.04436027  0.64071443  0.03443997    -0.43400
N750        N  0.20525862  0.58721395  0.97886544    -0.43900
N751        N  0.22695152  0.71986405  0.94204750    -0.41200
N752        N  0.15879442  0.64020250  0.08653018    -0.42700
H753        H  0.21228082  0.69140313  0.06496074     0.13500
H754        H  0.17887779  0.66314801  0.96301483     0.10000
H755        H  0.11612562  0.66494291  0.02452687     0.11000
H756        H  0.13175918  0.56452805  0.98074619     0.16900
C757        C  0.12741572  0.35856269  0.01643189    -0.01400
C758        C  0.14936478  0.35997897  0.99381835     0.07200
C759        C  0.14613321  0.38081543  0.97067692    -0.07300
C760        C  0.12174840  0.40022551  0.96986978     0.04700
C761        C  0.09990933  0.39899484  0.99253486    -0.14600
C762        C  0.10289644  0.37800964  0.01559702    -0.07900
C763        C  0.17382476  0.33770550  0.99167334     0.05600
C764        C  0.17356707  0.31807821  0.96731654    -0.09000
C765        C  0.19434931  0.29501286  0.96515572     0.00600
C766        C  0.21600276  0.29111653  0.98775114     0.00500
C767        C  0.21763198  0.31196175  0.01115709    -0.12600
C768        C  0.19679424  0.33533282  0.01315938     0.00900
C769        C  0.19279705  0.27541334  0.93955902     0.40200
C770        C  0.19924498  0.35653202  0.03733421     0.36900
C771        C  0.12910187  0.33684252  0.04019657     0.36600
C772        C  0.11891703  0.42020273  0.94472245     0.37400
N773        N  0.19162698  0.25986617  0.91893425    -0.43400
N774        N  0.20112482  0.37367141  0.05660177    -0.43900
N775        N  0.11668158  0.43586326  0.92429574    -0.41200
N776        N  0.13046020  0.31951454  0.05932969    -0.42700
H777        H  0.08627778  0.37709677  0.03316698     0.13500
H778        H  0.16251038  0.38152388  0.95286489     0.10000
H779        H  0.15644229  0.32026823  0.95031972     0.11000
H780        H  0.23424714  0.30920334  0.02855187     0.16900
C781        C  0.85141962  0.48127962  0.87448499    -0.01400
C782        C  0.85465433  0.49736807  0.84761331     0.07200
C783        C  0.88126490  0.51303985  0.84249423    -0.07300
C784        C  0.90447412  0.51291370  0.86366345     0.04700
C785        C  0.90108722  0.49717722  0.89095529    -0.14600
C786        C  0.87434258  0.48147469  0.89586509    -0.07900
C787        C  0.83033928  0.49854526  0.82482629     0.05600
C788        C  0.81307587  0.52455290  0.82225774    -0.09000
C789        C  0.79030789  0.52674631  0.80080118     0.00600
C790        C  0.78462115  0.50273168  0.78116902     0.00500
C791        C  0.80180040  0.47662116  0.78385997    -0.12600
C792        C  0.82434417  0.47429391  0.80558833     0.00900
C793        C  0.77392343  0.55434098  0.79848681     0.40200
C794        C  0.84132474  0.44699729  0.80765445     0.36900
C795        C  0.82460182  0.46460850  0.88069665     0.36600
C796        C  0.93094026  0.53006084  0.85714989     0.37400
N797        N  0.76079981  0.57651293  0.79672157    -0.43400
N798        N  0.85497943  0.42516396  0.80962506    -0.43900
N799        N  0.95208765  0.54383456  0.85175892    -0.41200
N800        N  0.80313434  0.45114636  0.88556553    -0.42700
H801        H  0.87136808  0.46906416  0.91646083     0.13500
H802        H  0.88386308  0.52549134  0.82186884     0.10000
H803        H  0.81753866  0.54326689  0.83698092     0.11000
H804        H  0.79754345  0.45806781  0.76889629     0.16900
C805        C  0.11500824  0.49967371  0.84229130    -0.01400
C806        C  0.14537649  0.50265656  0.84982019     0.07200
C807        C  0.15323260  0.50518398  0.88001022    -0.07300
C808        C  0.13156417  0.50469067  0.90266920     0.04700
C809        C  0.10083028  0.50098135  0.89541269    -0.14600
C810        C  0.09321091  0.49868632  0.86485355    -0.07900
C811        C  0.16924374  0.50378398  0.82653666     0.05600
C812        C  0.17076359  0.52847297  0.80721591    -0.09000
C813        C  0.19302130  0.53046641  0.78524604     0.00600
C814        C  0.21395590  0.50722143  0.78186787     0.00500
C815        C  0.21288928  0.48289832  0.80164350    -0.12600
C816        C  0.19083967  0.48098890  0.82379147     0.00900
C817        C  0.19507716  0.55730518  0.76757778     0.40200
C818        C  0.19042138  0.45505819  0.84293381     0.36900
C819        C  0.10579010  0.49708436  0.81147254     0.36600
C820        C  0.14207026  0.50839514  0.93295046     0.37400
N821        N  0.19693388  0.57892652  0.75354630    -0.43400
N822        N  0.19021872  0.43420183  0.85819541    -0.43900
N823        N  0.15095558  0.51138276  0.95705461    -0.41200
N824        N  0.09861190  0.49510403  0.78670359    -0.42700
H825        H  0.07008685  0.49598170  0.85835981     0.13500
H826        H  0.17654488  0.50790913  0.88589309     0.10000
H827        H  0.15478122  0.54647015  0.80965760     0.11000
H828        H  0.22903146  0.46504654  0.79933237     0.16900
C829        C  0.11251813  0.50676952  0.14407963    -0.01400
C830        C  0.14083277  0.49420810  0.13885324     0.07200
C831        C  0.14604968  0.47899389  0.11197541    -0.07300
C832        C  0.12391045  0.47729446  0.08984999     0.04700
C833        C  0.09598114  0.49144688  0.09434746    -0.14600
C834        C  0.09048912  0.50548514  0.12190423    -0.07900
C835        C  0.16524929  0.49700490  0.16118863     0.05600
C836        C  0.17361304  0.47198315  0.17810307    -0.09000
C837        C  0.19582914  0.47416855  0.20012051     0.00600
C838        C  0.21019053  0.50167817  0.20526157     0.00500
C839        C  0.20216613  0.52654888  0.18799453    -0.12600
C840        C  0.17983570  0.52448601  0.16617345     0.00900
C841        C  0.20400822  0.44775919  0.21654012     0.40200
C842        C  0.17248850  0.55073579  0.14893106     0.36900
C843        C  0.10550406  0.52063294  0.17232294     0.36600
C844        C  0.13018601  0.46005841  0.06327751     0.37400
N845        N  0.21027390  0.42625828  0.22941749    -0.43400
N846        N  0.16661204  0.57180120  0.13515649    -0.43900
N847        N  0.13520765  0.44611303  0.04209231    -0.41200
N848        N  0.09999540  0.53146748  0.19513137    -0.42700
H849        H  0.06910294  0.51600199  0.12599131     0.13500
H850        H  0.16756027  0.46860111  0.10821126     0.10000
H851        H  0.16258972  0.45078007  0.17422645     0.11000
H852        H  0.21344639  0.54763627  0.19170604     0.16900
C853        C  0.88190347  0.50447684  0.14381443    -0.01400
C854        C  0.85157626  0.50778980  0.13630330     0.07200
C855        C  0.84333806  0.50682428  0.10610298    -0.07300
C856        C  0.86466353  0.50299085  0.08343020     0.04700
C857        C  0.89551708  0.50077344  0.09069555    -0.14600
C858        C  0.90343267  0.50154276  0.12123285    -0.07900
C859        C  0.82820588  0.51268553  0.15957852     0.05600
C860        C  0.82877383  0.53903191  0.17666251    -0.09000
C861        C  0.80732714  0.54431580  0.19888097     0.00600
C862        C  0.78500506  0.52290649  0.20458073     0.00500
C863        C  0.78377109  0.49713538  0.18682853    -0.12600
C864        C  0.80517142  0.49178333  0.16463759     0.00900
C865        C  0.80777386  0.57236590  0.21473317     0.40200
C866        C  0.80361571  0.46416318  0.14812671     0.36900
C867        C  0.89131935  0.50277805  0.17464267     0.36600
C868        C  0.85368393  0.50137371  0.05313597     0.37400
N869        N  0.80794851  0.59494626  0.22731358    -0.43400
N870        N  0.80226080  0.44193304  0.13501865    -0.43900
N871        N  0.84451312  0.49997071  0.02899158    -0.41200
N872        N  0.89877466  0.50102517  0.19934723    -0.42700
H873        H  0.92660557  0.49977080  0.12772751     0.13500
H874        H  0.81999111  0.50914414  0.10019579     0.10000
H875        H  0.84589033  0.55559915  0.17243915     0.11000
H876        H  0.76650797  0.48073620  0.19095238     0.16900
C877        C  0.50739746  0.29860161  0.82590920    -0.01400
C878        C  0.48469030  0.31889707  0.83377772     0.07200
C879        C  0.45675830  0.31679870  0.81996011    -0.07300
C880        C  0.45172351  0.29597101  0.79723559     0.04700
C881        C  0.47470187  0.27623056  0.78862392    -0.14600
C882        C  0.50209762  0.27714715  0.80372555    -0.07900
C883        C  0.48966157  0.34327382  0.85555930     0.05600
C884        C  0.49870833  0.37141085  0.84522576    -0.09000
C885        C  0.50179183  0.39563915  0.86492205     0.00600
C886        C  0.49581601  0.39180160  0.89578819     0.00500
C887        C  0.48686817  0.36327063  0.90577223    -0.12600
C888        C  0.48362612  0.33927585  0.88605657     0.00900
C889        C  0.51131980  0.42388420  0.85269529     0.40200
C890        C  0.47343737  0.31087866  0.89746173     0.36900
C891        C  0.53678808  0.30056285  0.83888063     0.36600
C892        C  0.42316630  0.29604206  0.78232181     0.37400
N893        N  0.51889209  0.44655354  0.84288123    -0.43400
N894        N  0.46517159  0.28813234  0.90650304    -0.43900
N895        N  0.40029254  0.29622258  0.77034842    -0.41200
N896        N  0.56052246  0.30210839  0.84890880    -0.42700
H897        H  0.52005663  0.26253231  0.79671304     0.13500
H898        H  0.43922204  0.33226710  0.82618390     0.10000
H899        H  0.50307776  0.37449229  0.82158849     0.11000
H900        H  0.48188588  0.35963091  0.92910725     0.16900
C901        C  0.52089598  0.67631055  0.81647548    -0.01400
C902        C  0.49784645  0.66902733  0.83657981     0.07200
C903        C  0.47111668  0.68533197  0.83574414    -0.07300
C904        C  0.46637815  0.70723692  0.81385398     0.04700
C905        C  0.48869694  0.71310875  0.79253733    -0.14600
C906        C  0.51611526  0.69815974  0.79460725    -0.07900
C907        C  0.50036003  0.64308681  0.85708871     0.05600
C908        C  0.51915184  0.64497081  0.88197640    -0.09000
C909        C  0.52114911  0.62133032  0.90237223     0.00600
C910        C  0.50444612  0.59483714  0.89770070     0.00500
C911        C  0.48659023  0.59261880  0.87202521    -0.12600
C912        C  0.48416113  0.61655695  0.85200877     0.00900
C913        C  0.54063763  0.62510462  0.92772523     0.40200
C914        C  0.46462795  0.61354639  0.82654945     0.36900
C915        C  0.54873787  0.66013619  0.81645230     0.36600
C916        C  0.43763569  0.72158861  0.81210348     0.37400
N917        N  0.55632117  0.62879524  0.94790041    -0.43400
N918        N  0.44885502  0.61121258  0.80621117    -0.43900
N919        N  0.41455794  0.73302599  0.81058999    -0.41200
N920        N  0.57102618  0.64712943  0.81640182    -0.42700
H921        H  0.53316395  0.70231296  0.77794052     0.13500
H922        H  0.45342590  0.67991218  0.85133082     0.10000
H923        H  0.53188385  0.66522606  0.88574034     0.11000
H924        H  0.47356861  0.57257475  0.86816726     0.16900
C925        C  0.49129048  0.67758665  0.17253989    -0.01400
C926        C  0.51379672  0.66781041  0.15285517     0.07200
C927        C  0.54122624  0.68284130  0.15226597    -0.07300
C928        C  0.54715533  0.70602327  0.17240970     0.04700
C929        C  0.52525924  0.71465913  0.19322087    -0.14600
C930        C  0.49713288  0.70102169  0.19242121    -0.07900
C931        C  0.50948766  0.64145321  0.13328828     0.05600
C932        C  0.49003000  0.64375643  0.10899512    -0.09000
C933        C  0.48639608  0.61996750  0.08910513     0.00600
C934        C  0.50223147  0.59294348  0.09359108     0.00500
C935        C  0.52091885  0.59031996  0.11864381    -0.12600
C936        C  0.52487682  0.61441799  0.13826757     0.00900
C937        C  0.46614951  0.62410357  0.06437804     0.40200
C938        C  0.54501374  0.61107965  0.16321498     0.36900
C939        C  0.46300062  0.66232670  0.17442004     0.36600
C940        C  0.57630685  0.71963640  0.17234363     0.37400
N941        N  0.44993687  0.62787662  0.04463223    -0.43400
N942        N  0.56118646  0.60857226  0.18321353    -0.43900
N943        N  0.59970288  0.73051006  0.17214630    -0.41200
N944        N  0.44040376  0.64997501  0.17607412    -0.42700
H945        H  0.48050422  0.70714386  0.20891227     0.13500
H946        H  0.55839713  0.67566007  0.13680324     0.10000
H947        H  0.47805717  0.66447516  0.10526840     0.11000
H948        H  0.53332198  0.56985398  0.12226869     0.16900
C949        C  0.48435748  0.36856890  0.13697978    -0.01400
C950        C  0.49947438  0.34167175  0.13084675     0.07200
C951        C  0.51803433  0.33972192  0.10585069    -0.07300
C952        C  0.52078944  0.36388101  0.08623981     0.04700
C953        C  0.50438461  0.39043595  0.09145065    -0.14600
C954        C  0.48686256  0.39267620  0.11730171    -0.07900
C955        C  0.49607864  0.31557315  0.15067410     0.05600
C956        C  0.46871599  0.30039522  0.15085318    -0.09000
C957        C  0.46223360  0.27976131  0.17336121     0.00600
C958        C  0.48374311  0.27357341  0.19539595     0.00500
C959        C  0.51181925  0.28716537  0.19399972    -0.12600
C960        C  0.51809042  0.30828598  0.17191788     0.00900
C961        C  0.43247851  0.26762846  0.17530175     0.40200
C962        C  0.54607920  0.32414208  0.17319355     0.36900
C963        C  0.46626349  0.37185238  0.16345598     0.36600
C964        C  0.54133082  0.36106532  0.06156836     0.37400
N965        N  0.40853868  0.25820210  0.17720037    -0.43400
N966        N  0.56844450  0.33695531  0.17444945    -0.43900
N967        N  0.55802708  0.35866678  0.04202478    -0.41200
N968        N  0.45190484  0.37432508  0.18478198    -0.42700
H969        H  0.47440868  0.41295793  0.12170502     0.13500
H970        H  0.53025428  0.31925069  0.10162875     0.10000
H971        H  0.45170138  0.30625552  0.13464355     0.11000
H972        H  0.52807662  0.28279704  0.21142311     0.16900
C973        C  0.64595004  0.11403589  0.97621455    -0.01400
C974        C  0.64147435  0.14107019  0.99169504     0.07200
C975        C  0.61651069  0.14434848  0.01008491    -0.07300
C976        C  0.59551655  0.12137173  0.01261593     0.04700
C977        C  0.59951821  0.09440263  0.99650704    -0.14600
C978        C  0.62510902  0.09093223  0.97882558    -0.07900
C979        C  0.66316200  0.16583258  0.98964190     0.05600
C980        C  0.66007022  0.18724812  0.96692475    -0.09000
C981        C  0.68195353  0.20923027  0.96261990     0.00600
C982        C  0.70711189  0.20993412  0.98147859     0.00500
C983        C  0.70935829  0.18926061  0.00496712    -0.12600
C984        C  0.68768871  0.16731904  0.00917337     0.00900
C985        C  0.67928508  0.22919965  0.93746533     0.40200
C986        C  0.69187000  0.14563959  0.03269243     0.36900
C987        C  0.67160466  0.10964616  0.95728273     0.36600
C988        C  0.57051614  0.12602035  0.03237853     0.37400
N989        N  0.67716805  0.24520040  0.91727180    -0.43400
N990        N  0.69537780  0.12825953  0.05150285    -0.43900
N991        N  0.55064405  0.13016229  0.04830921    -0.41200
N992        N  0.69213410  0.10602688  0.94207408    -0.42700
H993        H  0.62838775  0.07047833  0.96626641     0.13500
H994        H  0.61343684  0.16495972  0.02244689     0.10000
H995        H  0.64117811  0.18600400  0.95183940     0.11000
H996        H  0.72892542  0.18943498  0.01924137     0.16900
C997        C  0.35763552  0.87375643  0.02105571    -0.01400
C998        C  0.35992127  0.84846576  0.00231293     0.07200
C999        C  0.38068633  0.84856365  0.97899927    -0.07300
C1000       C  0.40012849  0.87262544  0.97515503     0.04700
C1001       C  0.39976032  0.89668747  0.99549986    -0.14600
C1002       C  0.37795267  0.89736430  0.01795366    -0.07900
C1003       C  0.33973431  0.82242268  0.00538592     0.05600
C1004       C  0.31875890  0.81709877  0.98283489    -0.09000
C1005       C  0.29747184  0.79455659  0.98597236     0.00600
C1006       C  0.29736385  0.77639675  0.01176843     0.00500
C1007       C  0.31961968  0.78035801  0.03344648    -0.12600
C1008       C  0.34079638  0.80326445  0.03042725     0.00900
C1009       C  0.27444172  0.79203276  0.96353317     0.40200
C1010       C  0.36295600  0.80728236  0.05350111     0.36900
C1011       C  0.33361514  0.87672397  0.04229344     0.36600
C1012       C  0.41855064  0.87322230  0.94881811     0.37400
N1013       N  0.25580208  0.79028870  0.94572861    -0.43400
N1014       N  0.38081291  0.81069466  0.07186913    -0.43900
N1015       N  0.43249936  0.87395353  0.92713436    -0.41200
N1016       N  0.31402070  0.87945006  0.05887288    -0.42700
H1017       H  0.37685667  0.91625196  0.03309527     0.13500
H1018       H  0.38140841  0.82993363  0.96351848     0.10000
H1019       H  0.31809536  0.83158649  0.96341706     0.11000
H1020       H  0.31929525  0.76684814  0.05355584     0.16900
C1021       C  0.67897560  0.81439536  0.98264657    -0.01400
C1022       C  0.65507019  0.81706997  0.00289447     0.07200
C1023       C  0.65267203  0.79648724  0.02648558    -0.07300
C1024       C  0.67488249  0.77489319  0.03134264     0.04700
C1025       C  0.70019358  0.77412723  0.01264838    -0.14600
C1026       C  0.70132028  0.79321706  0.98778380    -0.07900
C1027       C  0.63382477  0.84252912  0.00086851     0.05600
C1028       C  0.61488325  0.84479079  0.97601336    -0.09000
C1029       C  0.59588720  0.86938505  0.97253202     0.00600
C1030       C  0.59566139  0.89233787  0.99417985     0.00500
C1031       C  0.61480943  0.89026518  0.01888721    -0.12600
C1032       C  0.63373186  0.86558601  0.02243404     0.00900
C1033       C  0.57762079  0.87106526  0.94601388     0.40200
C1034       C  0.65330452  0.86469317  0.04805081     0.36900
C1035       C  0.68210763  0.83447591  0.95759306     0.36600
C1036       C  0.67195109  0.75507166  0.05656860     0.37400
N1037       N  0.56324982  0.87235125  0.92457283    -0.43400
N1038       N  0.66900406  0.86395110  0.06857197    -0.43900
N1039       N  0.66921395  0.73908095  0.07669000    -0.41200
N1040       N  0.68445858  0.85056113  0.93749577    -0.42700
H1041       H  0.72058402  0.79259299  0.97315961     0.13500
H1042       H  0.63398279  0.79804991  0.04176293     0.10000
H1043       H  0.61517218  0.82739303  0.95915144     0.11000
H1044       H  0.61453867  0.90766997  0.03575202     0.16900
C1045       C  0.39348722  0.14953799  0.00739835    -0.01400
C1046       C  0.36449548  0.14695347  0.99586056     0.07200
C1047       C  0.35545476  0.12012538  0.98244956    -0.07300
C1048       C  0.37486579  0.09565955  0.98077757     0.04700
C1049       C  0.40399415  0.09801851  0.99273312    -0.14600
C1050       C  0.41292554  0.12524706  0.00575435    -0.07900
C1051       C  0.34282871  0.17165901  0.99833849     0.05600
C1052       C  0.34035887  0.19222641  0.97488776    -0.09000
C1053       C  0.31748382  0.21352426  0.97471719     0.00600
C1054       C  0.29680552  0.21436116  0.99845067     0.00500
C1055       C  0.30053173  0.19488242  0.02276210    -0.12600
C1056       C  0.32335737  0.17362779  0.02289292     0.00900
C1057       C  0.31427364  0.23227462  0.94872761     0.40200
C1058       C  0.32552325  0.15307472  0.04767025     0.36900
C1059       C  0.40366169  0.17683455  0.02120508     0.36600
C1060       C  0.36440813  0.06882021  0.96623858     0.37400
N1061       N  0.31207767  0.24702891  0.92762249    -0.43400
N1062       N  0.32731946  0.13656483  0.06748283    -0.43900
N1063       N  0.35593124  0.04731892  0.95465683    -0.41200
N1064       N  0.41186902  0.19871762  0.03222805    -0.42700
H1065       H  0.43509940  0.12752018  0.01516885     0.13500
H1066       H  0.33307186  0.11829017  0.97343867     0.10000
H1067       H  0.35547919  0.19069483  0.95604740     0.11000
H1068       H  0.28453443  0.19521506  0.04092536     0.16900
C1069       C  0.50002170  0.11028156  0.84014358    -0.01400
C1070       C  0.50131607  0.14088559  0.84731668     0.07200
C1071       C  0.50332788  0.14922892  0.87744964    -0.07300
C1072       C  0.50383556  0.12777725  0.90038013     0.04700
C1073       C  0.50218668  0.09678108  0.89341272    -0.14600
C1074       C  0.50057387  0.08868584  0.86293495    -0.07900
C1075       C  0.49706219  0.16449930  0.82412337     0.05600
C1076       C  0.47015161  0.18047465  0.82406889    -0.09000
C1077       C  0.46404893  0.20182317  0.80200357     0.00600
C1078       C  0.48532723  0.20802794  0.77966679     0.00500
C1079       C  0.51235983  0.19227652  0.77977090    -0.12600
C1080       C  0.51837217  0.17060898  0.80165429     0.00900
C1081       C  0.43507201  0.21573512  0.80168262     0.40200
C1082       C  0.54657015  0.15517699  0.80048718     0.36900
C1083       C  0.49672833  0.10060332  0.80953711     0.36600
C1084       C  0.50560252  0.13867840  0.93071770     0.37400
N1085       N  0.41165973  0.22656564  0.80141596    -0.43400
N1086       N  0.56928754  0.14303494  0.79898478    -0.43900
N1087       N  0.50697334  0.14742257  0.95502639    -0.41200
N1088       N  0.49408569  0.09309465  0.78493051    -0.42700
H1089       H  0.49910454  0.06534485  0.85670633     0.13500
H1090       H  0.50396093  0.17277778  0.88311672     0.10000
H1091       H  0.45346658  0.17560945  0.84090876     0.11000
H1092       H  0.52881377  0.19703671  0.76269735     0.16900
C1093       C  0.49195574  0.84417271  0.87900731    -0.01400
C1094       C  0.49539623  0.85064119  0.84842098     0.07200
C1095       C  0.50201660  0.87997331  0.83973549    -0.07300
C1096       C  0.50474245  0.90291847  0.86098997     0.04700
C1097       C  0.49952644  0.89687774  0.89172282    -0.14600
C1098       C  0.49410786  0.86706150  0.90019005    -0.07900
C1099       C  0.49198392  0.82710802  0.82520906     0.05600
C1100       C  0.46601254  0.82662919  0.80775925    -0.09000
C1101       C  0.46134247  0.80415504  0.78642338     0.00600
C1102       C  0.48319593  0.78188070  0.78188766     0.00500
C1103       C  0.50917968  0.78245240  0.79938920    -0.12600
C1104       C  0.51374115  0.80480550  0.82085274     0.00900
C1105       C  0.43326992  0.80360066  0.77070910     0.40200
C1106       C  0.54107185  0.80467529  0.83787660     0.36900
C1107       C  0.48577189  0.81424793  0.88926492     0.36600
C1108       C  0.51476754  0.93175515  0.85061215     0.37400
N1109       N  0.41055722  0.80342179  0.75842761    -0.43400
N1110       N  0.56299584  0.80455182  0.85151656    -0.43900
N1111       N  0.52332552  0.95466632  0.84227319    -0.41200
N1112       N  0.48097021  0.79030882  0.89770863    -0.42700
H1113       H  0.49114710  0.86143676  0.92355620     0.13500
H1114       H  0.50556491  0.88483321  0.81625714     0.10000
H1115       H  0.44904789  0.84351693  0.81130942     0.11000
H1116       H  0.52613560  0.76557864  0.79593174     0.16900
C1117       C  0.51905295  0.84626246  0.10923610    -0.01400
C1118       C  0.50675453  0.85051404  0.13793103     0.07200
C1119       C  0.49147013  0.87717840  0.14394325    -0.07300
C1120       C  0.48861125  0.89956617  0.12203816     0.04700
C1121       C  0.50073211  0.89526316  0.09302323    -0.14600
C1122       C  0.51562932  0.86823982  0.08707791    -0.07900
C1123       C  0.51072959  0.82780046  0.16212385     0.05600
C1124       C  0.53895350  0.82442742  0.17525937    -0.09000
C1125       C  0.54416087  0.80235852  0.19686776     0.00600
C1126       C  0.52094900  0.78317894  0.20590502     0.00500
C1127       C  0.49264209  0.78649448  0.19296596    -0.12600
C1128       C  0.48735945  0.80869258  0.17129016     0.00900
C1129       C  0.57385824  0.79876524  0.20871175     0.40200
C1130       C  0.45815897  0.81077348  0.15792086     0.36900
C1131       C  0.53565781  0.81957679  0.10216755     0.36600
C1132       C  0.47291122  0.92656827  0.13003891     0.37400
N1133       N  0.59761370  0.79557376  0.21828692    -0.43400
N1134       N  0.43477933  0.81238710  0.14709424    -0.43900
N1135       N  0.46049438  0.94827917  0.13650443    -0.41200
N1136       N  0.54912345  0.79823989  0.09666626    -0.42700
H1137       H  0.52546410  0.86456993  0.06525570     0.13500
H1138       H  0.48215058  0.88071004  0.16602062     0.10000
H1139       H  0.55710398  0.83877329  0.16820294     0.11000
H1140       H  0.47484462  0.77153425  0.19957477     0.16900
C1141       C  0.48575149  0.14469959  0.10887039    -0.01400
C1142       C  0.49725610  0.13953257  0.13770082     0.07200
C1143       C  0.51151822  0.11237327  0.14379340    -0.07300
C1144       C  0.51380780  0.09011512  0.12179577     0.04700
C1145       C  0.50123683  0.09471547  0.09305809    -0.14600
C1146       C  0.48774183  0.12244583  0.08691636    -0.07900
C1147       C  0.49298127  0.16169368  0.16206845     0.05600
C1148       C  0.46521818  0.16294099  0.17638554    -0.09000
C1149       C  0.45929044  0.18474162  0.19801708     0.00600
C1150       C  0.48144796  0.20559969  0.20594666     0.00500
C1151       C  0.50931740  0.20431532  0.19173394    -0.12600
C1152       C  0.51523425  0.18254219  0.16992321     0.00900
C1153       C  0.42975812  0.18650455  0.21057129     0.40200
C1154       C  0.54397039  0.18236652  0.15546000     0.36900
C1155       C  0.47165900  0.17273501  0.10149662     0.36600
C1156       C  0.52983747  0.06317565  0.12922937     0.37400
N1157       N  0.40603618  0.18816376  0.22055786    -0.43400
N1158       N  0.56702811  0.18228811  0.14388657    -0.43900
N1159       N  0.54274273  0.04162952  0.13523038    -0.41200
N1160       N  0.46049012  0.19532507  0.09582389    -0.42700
H1161       H  0.47818845  0.12663217  0.06504267     0.13500
H1162       H  0.52065604  0.10847043  0.16590055     0.10000
H1163       H  0.44789748  0.14725157  0.17008552     0.11000
H1164       H  0.52637758  0.22038217  0.19770591     0.16900
C1165       C  0.35470883  0.97820965  0.11359303    -0.01400
C1166       C  0.36175394  0.98983759  0.14212014     0.07200
C1167       C  0.38874325  0.00504552  0.14611115    -0.07300
C1168       C  0.40883701  0.00840311  0.12249598     0.04700
C1169       C  0.40245514  0.99559387  0.09423727    -0.14600
C1170       C  0.37508759  0.98098513  0.09005138    -0.07900
C1171       C  0.34123836  0.98640922  0.16799548     0.05600
C1172       C  0.33297091  0.95759009  0.17714927    -0.09000
C1173       C  0.31109046  0.95344931  0.19904443     0.00600
C1174       C  0.29761776  0.97840213  0.21261560     0.00500
C1175       C  0.30761493  0.00713901  0.20530478    -0.12600
C1176       C  0.32910485  0.01136494  0.18300391     0.00900
C1177       C  0.30174901  0.92346341  0.20620967     0.40200
C1178       C  0.33645296  0.04151349  0.17424962     0.36900
C1179       C  0.32641441  0.96401254  0.10768297     0.36600
C1180       C  0.43544287  0.02579382  0.12783609     0.37400
N1181       N  0.29438147  0.89937378  0.21192749    -0.43400
N1182       N  0.34235021  0.06565734  0.16718757    -0.43900
N1183       N  0.45670927  0.03977462  0.13212897    -0.41200
N1184       N  0.30369891  0.95276679  0.10281474    -0.42700
H1185       H  0.36977829  0.97125697  0.06849032     0.13500
H1186       H  0.39415419  0.01432560  0.16784252     0.10000
H1187       H  0.34274448  0.93830577  0.16624596     0.11000
H1188       H  0.29681766  0.02639742  0.21525905     0.16900
C1189       C  0.66637832  0.94848170  0.80982127    -0.01400
C1190       C  0.65662218  0.97758317  0.81692183     0.07200
C1191       C  0.66794533  0.00195606  0.80080775    -0.07300
C1192       C  0.68987481  0.99779304  0.77894623     0.04700
C1193       C  0.70046171  0.96879474  0.77278540    -0.14600
C1194       C  0.68822424  0.94434376  0.78795014    -0.07900
C1195       C  0.63631426  0.98307629  0.84250144     0.05600
C1196       C  0.64571338  0.97516595  0.87135264    -0.09000
C1197       C  0.62682693  0.97845804  0.89604773     0.00600
C1198       C  0.59777065  0.99025098  0.89208102     0.00500
C1199       C  0.58895770  0.99910074  0.86312753    -0.12600
C1200       C  0.60784261  0.99559807  0.83853200     0.00900
C1201       C  0.63769461  0.96834807  0.92470259     0.40200
C1202       C  0.59712074  0.00408328  0.80930112     0.36900
C1203       C  0.65502126  0.92265979  0.82542579     0.36600
C1204       C  0.70320664  0.02376658  0.76528845     0.37400
N1205       N  0.64664823  0.96016115  0.94754289    -0.43400
N1206       N  0.58854932  0.01092036  0.78588197    -0.43900
N1207       N  0.71406991  0.04458813  0.75453515    -0.41200
N1208       N  0.64598180  0.90205036  0.83810983    -0.42700
H1209       H  0.69678733  0.92210502  0.78367259     0.13500
H1210       H  0.66075767  0.02438753  0.80641780     0.10000
H1211       H  0.66782354  0.96585181  0.87447663     0.11000
H1212       H  0.56698172  0.00850430  0.85947035     0.16900
C1213       C  0.36309204  0.97587567  0.86385939    -0.01400
C1214       C  0.36360535  0.99924296  0.84262829     0.07200
C1215       C  0.38157720  0.02432421  0.84801399    -0.07300
C1216       C  0.40002799  0.02562648  0.87324833     0.04700
C1217       C  0.40113540  0.00125385  0.89318098    -0.14600
C1218       C  0.38207901  0.97688438  0.88870056    -0.07900
C1219       C  0.34329019  0.99920370  0.81640456     0.05600
C1220       C  0.32068501  0.02072773  0.81529061    -0.09000
C1221       C  0.29772749  0.01855762  0.79431681     0.00600
C1222       C  0.29738197  0.99470695  0.77371608     0.00500
C1223       C  0.32149494  0.97481939  0.77286935    -0.12600
C1224       C  0.34448623  0.97692432  0.79404684     0.00900
C1225       C  0.27393532  0.04023958  0.79538870     0.40200
C1226       C  0.36846792  0.95545426  0.79307880     0.36900
C1227       C  0.34252378  0.95120855  0.86121502     0.36600
C1228       C  0.41628828  0.05281196  0.87921774     0.37400
N1229       N  0.25498350  0.05773557  0.79635299    -0.43400
N1230       N  0.38767279  0.93822344  0.79227334    -0.43900
N1231       N  0.42874889  0.07486403  0.88429057    -0.41200
N1232       N  0.32590714  0.93154656  0.85918168    -0.42700
H1233       H  0.38237419  0.95841741  0.90438393     0.13500
H1234       H  0.38092985  0.04302479  0.83262702     0.10000
H1235       H  0.31998502  0.03824331  0.83202357     0.11000
H1236       H  0.32133610  0.95647485  0.75704052     0.16900
C1237       C  0.49050431  0.09875281  0.33516286    -0.01400
C1238       C  0.48326459  0.12895335  0.33993647     0.07200
C1239       C  0.48029580  0.13946075  0.36934310    -0.07300
C1240       C  0.48407069  0.12043768  0.39389364     0.04700
C1241       C  0.49175929  0.09007430  0.38926957    -0.14600
C1242       C  0.49541855  0.07995899  0.35962845    -0.07900
C1243       C  0.47776504  0.15009392  0.31494504     0.05600
C1244       C  0.45032865  0.16513177  0.31397738    -0.09000
C1245       C  0.44542478  0.18824614  0.29359314     0.00600
C1246       C  0.46822199  0.19654832  0.27356751     0.00500
C1247       C  0.49492113  0.18031550  0.27318488    -0.12600
C1248       C  0.49999512  0.15739601  0.29380033     0.00900
C1249       C  0.41700086  0.20339473  0.29396461     0.40200
C1250       C  0.52895662  0.14336252  0.29407062     0.36900
C1251       C  0.49181979  0.08614200  0.30547529     0.36600
C1252       C  0.47897218  0.13279912  0.42326126     0.37400
N1253       N  0.39420230  0.21548117  0.29423385    -0.43400
N1254       N  0.55215777  0.13207415  0.29398500    -0.43900
N1255       N  0.47480027  0.14280208  0.44673897    -0.41200
N1256       N  0.49296025  0.07601140  0.28170872    -0.42700
H1257       H  0.50164451  0.05698339  0.35532540     0.13500
H1258       H  0.47456495  0.16269488  0.37311967     0.10000
H1259       H  0.43301802  0.15939164  0.32988522     0.11000
H1260       H  0.51269878  0.18691024  0.25816557     0.16900
C1261       C  0.54777859  0.82693602  0.30981288    -0.01400
C1262       C  0.51845822  0.83302579  0.31963755     0.07200
C1263       C  0.49444031  0.81861857  0.30553296    -0.07300
C1264       C  0.49936930  0.79708171  0.28335327     0.04700
C1265       C  0.52873146  0.78987987  0.27482707    -0.14600
C1266       C  0.55268137  0.80508537  0.28797921    -0.07900
C1267       C  0.51237730  0.85331535  0.34532048     0.05600
C1268       C  0.49355174  0.87796980  0.34116247    -0.09000
C1269       C  0.48763372  0.89777935  0.36465676     0.00600
C1270       C  0.50119948  0.89343411  0.39292076     0.00500
C1271       C  0.51883452  0.86795272  0.39743730    -0.12600
C1272       C  0.52420123  0.84779392  0.37409847     0.00900
C1273       C  0.46669239  0.92174520  0.35946315     0.40200
C1274       C  0.54154076  0.82135301  0.38033983     0.36900
C1275       C  0.57317213  0.84265583  0.32192726     0.36600
C1276       C  0.47418557  0.78086432  0.27147295     0.37400
N1277       N  0.44973050  0.94081059  0.35551191    -0.43400
N1278       N  0.55551778  0.80017137  0.38513574    -0.43900
N1279       N  0.45413118  0.76762082  0.26202320    -0.41200
N1280       N  0.59349282  0.85519427  0.33176546    -0.42700
H1281       H  0.57530018  0.79938577  0.28162205     0.13500
H1282       H  0.47185732  0.82323338  0.31282427     0.10000
H1283       H  0.48352386  0.88180618  0.31943220     0.11000
H1284       H  0.52904710  0.86411836  0.41904942     0.16900
C1285       C  0.47507695  0.13277692  0.61888435    -0.01400
C1286       C  0.49721841  0.13205969  0.64135920     0.07200
C1287       C  0.52105690  0.11201799  0.63857597    -0.07300
C1288       C  0.52278002  0.09249954  0.61416584     0.04700
C1289       C  0.50045576  0.09299060  0.59185604    -0.14600
C1290       C  0.47694073  0.11342863  0.59432876    -0.07900
C1291       C  0.49629285  0.15290604  0.66722022     0.05600
C1292       C  0.47243006  0.15131165  0.68750795    -0.09000
C1293       C  0.46826943  0.17356714  0.70917459     0.00600
C1294       C  0.48836068  0.19768962  0.71077912     0.00500
C1295       C  0.51338740  0.19803011  0.69203808    -0.12600
C1296       C  0.51753283  0.17591939  0.67037516     0.00900
C1297       C  0.44201510  0.17247803  0.72775216     0.40200
C1298       C  0.54235470  0.17880656  0.65006545     0.36900
C1299       C  0.45031164  0.15329301  0.62049058     0.36600
C1300       C  0.54803853  0.07264746  0.61220852     0.37400
N1301       N  0.42092297  0.17154149  0.74258789    -0.43400
N1302       N  0.56223339  0.18126567  0.63378972    -0.43900
N1303       N  0.56849267  0.05699287  0.61079441    -0.41200
N1304       N  0.43043273  0.16969087  0.62191982    -0.42700
H1305       H  0.45950544  0.11362316  0.57753358     0.13500
H1306       H  0.53829583  0.11158401  0.65558520     0.10000
H1307       H  0.45620909  0.13347964  0.68537858     0.11000
H1308       H  0.52876358  0.21670154  0.69311626     0.16900
C1309       C  0.48198484  0.84597903  0.61238391    -0.01400
C1310       C  0.48217756  0.85522986  0.64251591     0.07200
C1311       C  0.48689126  0.88531704  0.64916410    -0.07300
C1312       C  0.49084384  0.90644597  0.62646904     0.04700
C1313       C  0.49002573  0.89756766  0.59585751    -0.14600
C1314       C  0.48570001  0.86704568  0.58944588    -0.07900
C1315       C  0.47858841  0.83379662  0.66759312     0.05600
C1316       C  0.50329095  0.82733191  0.68574177    -0.09000
C1317       C  0.50149435  0.80562652  0.70823844     0.00600
C1318       C  0.47457904  0.78999884  0.71275048     0.00500
C1319       C  0.44950643  0.79752728  0.69554102    -0.12600
C1320       C  0.45116212  0.81959292  0.67344092     0.00900
C1321       C  0.52812009  0.79829202  0.72480194     0.40200
C1322       C  0.42453380  0.82718535  0.65698097     0.36900
C1323       C  0.47898884  0.81484797  0.60452493     0.36600
C1324       C  0.49590652  0.93688903  0.63588565     0.37400
N1325       N  0.54953799  0.79251441  0.73801929    -0.43400
N1326       N  0.40308384  0.83335308  0.64399525    -0.43900
N1327       N  0.49992629  0.96122499  0.64361152    -0.41200
N1328       N  0.47678343  0.78988573  0.59821003    -0.42700
H1329       H  0.48522548  0.85945538  0.56644469     0.13500
H1330       H  0.48746375  0.89234227  0.67237119     0.10000
H1331       H  0.52432320  0.83851787  0.68157182     0.11000
H1332       H  0.42881596  0.78542134  0.69876300     0.16900
C1333       C  0.32163718  0.96013610  0.31060633    -0.01400
C1334       C  0.32692695  0.98725518  0.32573961     0.07200
C1335       C  0.31019830  0.01258335  0.31798082    -0.07300
C1336       C  0.28837263  0.01115083  0.29550007     0.04700
C1337       C  0.28323502  0.98411362  0.28022906    -0.14600
C1338       C  0.30001496  0.95880637  0.28797418    -0.07900
C1339       C  0.35037398  0.98971938  0.34916677     0.05600
C1340       C  0.37796420  0.00225277  0.34170615    -0.09000
C1341       C  0.40122906  0.00374196  0.36265450     0.00600
C1342       C  0.39700005  0.99285884  0.39213815     0.00500
C1343       C  0.36884825  0.98095082  0.39960825    -0.12600
C1344       C  0.34582500  0.97906596  0.37840376     0.00900
C1345       C  0.42896986  0.01669437  0.35291647     0.40200
C1346       C  0.31774920  0.96580139  0.38689823     0.36900
C1347       C  0.33860517  0.93364159  0.31759891     0.36600
C1348       C  0.27225725  0.03788244  0.28775543     0.37400
N1349       N  0.45106973  0.02688428  0.34441735    -0.43400
N1350       N  0.29519385  0.95508307  0.39338821    -0.43900
N1351       N  0.25945729  0.05947988  0.28169949    -0.41200
N1352       N  0.35231437  0.91251311  0.32333004    -0.42700
H1353       H  0.29616653  0.93801057  0.27618812     0.13500
H1354       H  0.31434015  0.03352944  0.32941468     0.10000
H1355       H  0.38147548  0.01050005  0.31918579     0.11000
H1356       H  0.36492969  0.97239593  0.42192828     0.16900
C1357       C  0.61055143  0.98232583  0.64368259    -0.01400
C1358       C  0.64059289  0.99013621  0.63817629     0.07200
C1359       C  0.64824316  0.00074753  0.60964380    -0.07300
C1360       C  0.62686559  0.00328880  0.58681943     0.04700
C1361       C  0.59700852  0.99411992  0.59192384    -0.14600
C1362       C  0.58933998  0.98409669  0.62071676    -0.07900
C1363       C  0.66447854  0.98592789  0.66128418     0.05600
C1364       C  0.66763253  0.95781428  0.67491736    -0.09000
C1365       C  0.68955075  0.95269092  0.69662160     0.00600
C1366       C  0.70977583  0.97547871  0.70430301     0.00500
C1367       C  0.70734099  0.00336247  0.69029183    -0.12600
C1368       C  0.68456355  0.00896926  0.66943018     0.00900
C1369       C  0.69120589  0.92368099  0.71050857     0.40200
C1370       C  0.68149156  0.03886951  0.65780587     0.36900
C1371       C  0.60063643  0.97288405  0.67288081     0.36600
C1372       C  0.63627397  0.01628229  0.55884029     0.37400
N1373       N  0.69237424  0.90046621  0.72179643    -0.43400
N1374       N  0.67899147  0.06291171  0.64866854    -0.43900
N1375       N  0.64400290  0.02689635  0.53658010    -0.41200
N1376       N  0.59254208  0.96528148  0.69621798    -0.42700
H1377       H  0.56660997  0.97733513  0.62540343     0.13500
H1378       H  0.67117679  0.00684210  0.60502762     0.10000
H1379       H  0.65288279  0.93970729  0.66856860     0.11000
H1380       H  0.72279895  0.02096647  0.69630193     0.16900
C1381       C  0.31562511  0.96357014  0.66509924    -0.01400
C1382       C  0.32990013  0.99090721  0.65892091     0.07200
C1383       C  0.32236182  0.01635644  0.67555255    -0.07300
C1384       C  0.30116522  0.01472395  0.69851176     0.04700
C1385       C  0.28723335  0.98727699  0.70499342    -0.14600
C1386       C  0.29443897  0.96199191  0.68797430    -0.07900
C1387       C  0.35319225  0.99318372  0.63558458     0.05600
C1388       C  0.34569619  0.00449241  0.60738166    -0.09000
C1389       C  0.36701763  0.00617028  0.58451904     0.00600
C1390       C  0.39676835  0.99669808  0.59000767     0.00500
C1391       C  0.40406931  0.98587349  0.61860871    -0.12600
C1392       C  0.38261179  0.98382050  0.64114059     0.00900
C1393       C  0.35751638  0.01790660  0.55596763     0.40200
C1394       C  0.39123376  0.97160021  0.66971257     0.36900
C1395       C  0.32225095  0.93696920  0.64812307     0.36600
C1396       C  0.29333634  0.04161240  0.71435577     0.37400
N1397       N  0.34961867  0.02718985  0.53315112    -0.43400
N1398       N  0.39824874  0.96163573  0.69251287    -0.43900
N1399       N  0.28718821  0.06342453  0.72676167    -0.41200
N1400       N  0.32751040  0.91564416  0.63450534    -0.42700
H1401       H  0.28351486  0.94094551  0.69279582     0.13500
H1402       H  0.33314230  0.03746375  0.67062432     0.10000
H1403       H  0.32299314  0.01169892  0.60314874     0.11000
H1404       H  0.42652301  0.97821127  0.62329821     0.16900
C1405       C  0.65797101  0.01912660  0.19075962    -0.01400
C1406       C  0.65762748  0.99475663  0.17073025     0.07200
C1407       C  0.67854614  0.97180948  0.17418670    -0.07300
C1408       C  0.70086222  0.97380843  0.19594581     0.04700
C1409       C  0.70287621  0.99944417  0.21416483    -0.14600
C1410       C  0.68076881  0.02146414  0.21213235    -0.07900
C1411       C  0.63664684  0.99341897  0.14511169     0.05600
C1412       C  0.64738582  0.99924287  0.11625850    -0.09000
C1413       C  0.62830894  0.99873476  0.09137431     0.00600
C1414       C  0.59759801  0.99225742  0.09520829     0.00500
C1415       C  0.58734618  0.98549787  0.12428919    -0.12600
C1416       C  0.60645782  0.98615151  0.14900929     0.00900
C1417       C  0.64103037  0.00536380  0.06249722     0.40200
C1418       C  0.59469993  0.97910707  0.17819985     0.36900
C1419       C  0.63581964  0.04242748  0.18901247     0.36600
C1420       C  0.72179987  0.94950509  0.19891324     0.37400
N1421       N  0.65133781  0.01054703  0.03936854    -0.43400
N1422       N  0.58539907  0.97351725  0.20165339    -0.43900
N1423       N  0.73832779  0.92983171  0.20145708    -0.41200
N1424       N  0.61780661  0.06087916  0.18777147    -0.42700
H1425       H  0.68226328  0.04122398  0.22607148     0.13500
H1426       H  0.67781693  0.95263743  0.15938818     0.10000
H1427       H  0.67078723  0.00454317  0.11324333     0.11000
H1428       H  0.56415821  0.97976650  0.12796110     0.16900
C1429       C  0.61717414  0.01401340  0.34685054    -0.01400
C1430       C  0.64330800  0.99666339  0.34946577     0.07200
C1431       C  0.64594061  0.97668664  0.37350060    -0.07300
C1432       C  0.62325321  0.97415207  0.39498191     0.04700
C1433       C  0.59732268  0.99203648  0.39276391    -0.14600
C1434       C  0.59447300  0.01150573  0.36828114    -0.07900
C1435       C  0.66783301  0.99885826  0.32703904     0.05600
C1436       C  0.68445510  0.02532568  0.32510735    -0.09000
C1437       C  0.70672907  0.02878133  0.30340131     0.00600
C1438       C  0.71277713  0.00546044  0.28302612     0.00500
C1439       C  0.69627771  0.97888886  0.28507478    -0.12600
C1440       C  0.67409484  0.97538078  0.30695608     0.00900
C1441       C  0.72204196  0.05702967  0.30165046     0.40200
C1442       C  0.65747743  0.94781730  0.30806251     0.36900
C1443       C  0.61304271  0.03424056  0.32206703     0.36600
C1444       C  0.62652256  0.95202800  0.41824037     0.37400
N1445       N  0.73404906  0.07986718  0.30054116    -0.43400
N1446       N  0.64402102  0.92580843  0.30927494    -0.43900
N1447       N  0.62904916  0.93410246  0.43669742    -0.41200
N1448       N  0.60987813  0.05039901  0.30213714    -0.42700
H1449       H  0.57467519  0.02524828  0.36616879     0.13500
H1450       H  0.66576535  0.96295663  0.37540486     0.10000
H1451       H  0.67969706  0.04351040  0.34038880     0.11000
H1452       H  0.70081301  0.96088584  0.26954141     0.16900
C1453       C  0.31909333  0.82161175  0.54092013    -0.01400
C1454       C  0.32185533  0.83775272  0.51407120     0.07200
C1455       C  0.30241209  0.83172554  0.49030266    -0.07300
C1456       C  0.28115969  0.80892240  0.49243967     0.04700
C1457       C  0.27906158  0.79196303  0.51898216    -0.14600
C1458       C  0.29780602  0.79895150  0.54315642    -0.07900
C1459       C  0.34662694  0.85902687  0.50943945     0.05600
C1460       C  0.37023288  0.85068347  0.49065501    -0.09000
C1461       C  0.39465370  0.86965964  0.48627036     0.00600
C1462       C  0.39560689  0.89752900  0.50096459     0.00500
C1463       C  0.37170581  0.90587823  0.51955513    -0.12600
C1464       C  0.34729496  0.88696529  0.52377798     0.00900
C1465       C  0.41762958  0.86056843  0.46561133     0.40200
C1466       C  0.32287010  0.89693534  0.54227105     0.36900
C1467       C  0.33908925  0.82665368  0.56572783     0.36600
C1468       C  0.26404849  0.80176875  0.46608326     0.37400
N1469       N  0.43593000  0.85326797  0.44892711    -0.43400
N1470       N  0.30321938  0.90496521  0.55695537    -0.43900
N1471       N  0.25072788  0.79642945  0.44457820    -0.41200
N1472       N  0.35515077  0.83074910  0.58555925    -0.42700
H1473       H  0.29670177  0.78569030  0.56341284     0.13500
H1474       H  0.30477532  0.84402744  0.46955583     0.10000
H1475       H  0.36953047  0.82923814  0.47940432     0.11000
H1476       H  0.37208495  0.92731139  0.53086121     0.16900
C1477       C  0.69221092  0.83089266  0.48424096    -0.01400
C1478       C  0.67315234  0.83553680  0.50883895     0.07200
C1479       C  0.67746735  0.81908096  0.53511177    -0.07300
C1480       C  0.69899628  0.79650941  0.53626939     0.04700
C1481       C  0.71637779  0.79020342  0.51078920    -0.14600
C1482       C  0.71367518  0.80824082  0.48536173    -0.07900
C1483       C  0.64748559  0.85616797  0.50688322     0.05600
C1484       C  0.61999353  0.84518699  0.49680899    -0.09000
C1485       C  0.59524875  0.86410477  0.49372350     0.00600
C1486       C  0.59796036  0.89487120  0.50066953     0.00500
C1487       C  0.62568034  0.90543218  0.51135630    -0.12600
C1488       C  0.65021596  0.88642460  0.51448395     0.00900
C1489       C  0.56784630  0.85120159  0.48279909     0.40200
C1490       C  0.67809075  0.89836990  0.52536388     0.36900
C1491       C  0.68923985  0.84826161  0.45724527     0.36600
C1492       C  0.70237997  0.77945817  0.56345625     0.37400
N1493       N  0.54602015  0.84043577  0.47417791    -0.43400
N1494       N  0.70051208  0.90774215  0.53407802    -0.43900
N1495       N  0.70528971  0.76580486  0.58521998    -0.41200
N1496       N  0.68695643  0.86227738  0.43564426    -0.42700
H1497       H  0.72693229  0.80333995  0.46570052     0.13500
H1498       H  0.66327202  0.82314684  0.55429199     0.10000
H1499       H  0.61798357  0.82173491  0.49106902     0.11000
H1500       H  0.62834973  0.92872986  0.51738857     0.16900
C1501       C  0.67943501  0.16517371  0.53294251    -0.01400
C1502       C  0.67435229  0.15026983  0.50561410     0.07200
C1503       C  0.69266453  0.15692525  0.48101441    -0.07300
C1504       C  0.71461552  0.17913716  0.48287981     0.04700
C1505       C  0.71782050  0.19571758  0.50947537    -0.14600
C1506       C  0.70056035  0.18807506  0.53444318    -0.07900
C1507       C  0.64890303  0.12923574  0.50174672     0.05600
C1508       C  0.61987999  0.13912914  0.50817321    -0.09000
C1509       C  0.59524281  0.12010440  0.50519085     0.00600
C1510       C  0.59928962  0.09053449  0.49469624     0.00500
C1511       C  0.62840453  0.08105888  0.48751614    -0.12600
C1512       C  0.65302751  0.09986367  0.49131228     0.00900
C1513       C  0.56647706  0.13131426  0.51436772     0.40200
C1514       C  0.68244196  0.08807899  0.48559314     0.36900
C1515       C  0.66309607  0.15757761  0.55967403     0.36600
C1516       C  0.73210642  0.18565728  0.45663536     0.37400
N1517       N  0.54345117  0.14024992  0.52184485    -0.43400
N1518       N  0.70607775  0.07875170  0.48112987    -0.43900
N1519       N  0.74607149  0.19041499  0.43543329    -0.41200
N1520       N  0.65011783  0.15143443  0.58114917    -0.42700
H1521       H  0.70290997  0.20078813  0.55494393     0.13500
H1522       H  0.68902200  0.14555332  0.45992648     0.10000
H1523       H  0.61649493  0.16182128  0.51593898     0.11000
H1524       H  0.63218158  0.05856089  0.47940408     0.16900
C1525       C  0.31367586  0.17033117  0.46627548    -0.01400
C1526       C  0.32027094  0.15011458  0.48944926     0.07200
C1527       C  0.30408538  0.15140202  0.51620900    -0.07300
C1528       C  0.28301707  0.17398083  0.52095503     0.04700
C1529       C  0.27786005  0.19544404  0.49853545    -0.14600
C1530       C  0.29255757  0.19284700  0.47098827    -0.07900
C1531       C  0.34630052  0.12993958  0.48768496     0.05600
C1532       C  0.37378151  0.14004563  0.49870093    -0.09000
C1533       C  0.39890288  0.12143037  0.49882187     0.00600
C1534       C  0.39662501  0.09191534  0.48771263     0.00500
C1535       C  0.36899426  0.08229277  0.47602915    -0.12600
C1536       C  0.34399811  0.10093137  0.47604382     0.00900
C1537       C  0.42615386  0.13304750  0.51146449     0.40200
C1538       C  0.31610785  0.08964487  0.46454421     0.36900
C1539       C  0.32967924  0.16951368  0.43830673     0.36600
C1540       C  0.26906019  0.17630203  0.54990029     0.37400
N1541       N  0.44789178  0.14266226  0.52155474    -0.43400
N1542       N  0.29378074  0.08048823  0.45536905    -0.43900
N1543       N  0.25806907  0.17814161  0.57320941    -0.41200
N1544       N  0.34253774  0.16883445  0.41590858    -0.42700
H1545       H  0.28891473  0.20959687  0.45386084     0.13500
H1546       H  0.30920699  0.13581538  0.53403924     0.10000
H1547       H  0.37544117  0.16249072  0.50767596     0.11000
H1548       H  0.36670407  0.05991136  0.46705681     0.16900
C1549       C  0.80321462  0.95976346  0.64948125    -0.01400
C1550       C  0.82338814  0.98385360  0.65149368     0.07200
C1551       C  0.81898549  0.00586890  0.67325111    -0.07300
C1552       C  0.79650428  0.00276481  0.69456773     0.04700
C1553       C  0.77866418  0.97687333  0.69481296    -0.14600
C1554       C  0.78133421  0.95604000  0.67157180    -0.07900
C1555       C  0.84962773  0.98643837  0.63164516     0.05600
C1556       C  0.85042861  0.00967515  0.61079665    -0.09000
C1557       C  0.87509002  0.01347955  0.59214292     0.00600
C1558       C  0.89966933  0.99380299  0.59432444     0.00500
C1559       C  0.89931209  0.97116505  0.61595380    -0.12600
C1560       C  0.87449624  0.96731188  0.63455547     0.00900
C1561       C  0.87477986  0.03819795  0.57144035     0.40200
C1562       C  0.87518467  0.94382632  0.65663436     0.36900
C1563       C  0.80446034  0.93909190  0.62476049     0.36600
C1564       C  0.79234037  0.02619450  0.71632907     0.37400
N1565       N  0.87420205  0.05820726  0.55510816    -0.43400
N1566       N  0.87587850  0.92499058  0.67432011    -0.43900
N1567       N  0.78870677  0.04516954  0.73349385    -0.41200
N1568       N  0.80528762  0.92300919  0.60453290    -0.42700
H1569       H  0.76722080  0.93638193  0.67137571     0.13500
H1570       H  0.83368922  0.02508182  0.67407076     0.10000
H1571       H  0.83163910  0.02482862  0.60906346     0.11000
H1572       H  0.91800773  0.95589825  0.61766618     0.16900
C1573       C  0.12369321  0.99615128  0.63978746    -0.01400
C1574       C  0.15025574  0.98152608  0.63149784     0.07200
C1575       C  0.15234007  0.96808102  0.60346595    -0.07300
C1576       C  0.12868771  0.96959420  0.58323857     0.04700
C1577       C  0.10238068  0.98556870  0.59074138    -0.14600
C1578       C  0.10011473  0.99833636  0.61933207    -0.07900
C1579       C  0.17577062  0.97892370  0.65221008     0.05600
C1580       C  0.18092964  0.95151500  0.66635215    -0.09000
C1581       C  0.20294702  0.94892434  0.68831233     0.00600
C1582       C  0.22015288  0.97406155  0.69624168     0.00500
C1583       C  0.21667589  0.00078729  0.68027153    -0.12600
C1584       C  0.19451871  0.00341042  0.65837882     0.00900
C1585       C  0.20717095  0.92043737  0.70279439     0.40200
C1586       C  0.19058773  0.03163333  0.64329551     0.36900
C1587       C  0.11987000  0.00813576  0.66948192     0.36600
C1588       C  0.13182088  0.95312042  0.55570732     0.37400
N1589       N  0.21061852  0.89751794  0.71421930    -0.43400
N1590       N  0.18728576  0.05420771  0.63115797    -0.43900
N1591       N  0.13491507  0.93954344  0.53394823    -0.41200
N1592       N  0.11677812  0.01742557  0.69341049    -0.42700
H1593       H  0.07999479  0.01014524  0.62568647     0.13500
H1594       H  0.17247575  0.95603936  0.59752675     0.10000
H1595       H  0.16700795  0.93244743  0.66097445     0.11000
H1596       H  0.22985358  0.02018063  0.68630586     0.16900
C1597       C  0.11724048  0.98327897  0.34584902    -0.01400
C1598       C  0.14614567  0.99330428  0.35317156     0.07200
C1599       C  0.15133531  0.00563987  0.38142316    -0.07300
C1600       C  0.12834703  0.00770867  0.40252714     0.04700
C1601       C  0.09953974  0.99625502  0.39583263    -0.14600
C1602       C  0.09437178  0.98462198  0.36714314    -0.07900
C1603       C  0.17067753  0.99274829  0.33089283     0.05600
C1604       C  0.16927592  0.01249564  0.30668989    -0.09000
C1605       C  0.19022740  0.01106099  0.28363592     0.00600
C1606       C  0.21337799  0.98963673  0.28464587     0.00500
C1607       C  0.21573441  0.97090062  0.30965887    -0.12600
C1608       C  0.19451186  0.97221946  0.33268981     0.00900
C1609       C  0.18705692  0.03145213  0.25882014     0.40200
C1610       C  0.19659834  0.95110973  0.35695691     0.36900
C1611       C  0.11064729  0.97134809  0.31660929     0.36600
C1612       C  0.13472311  0.02330248  0.43007573     0.37400
N1613       N  0.18440547  0.04769323  0.23888130    -0.43400
N1614       N  0.19832994  0.93404769  0.37629830    -0.43900
N1615       N  0.13994090  0.03610883  0.45192974    -0.41200
N1616       N  0.10548844  0.96198003  0.29306521    -0.42700
H1617       H  0.07251403  0.97620986  0.36140591     0.13500
H1618       H  0.17328130  0.01434709  0.38671917     0.10000
H1619       H  0.15119565  0.02853371  0.30542049     0.11000
H1620       H  0.23308250  0.95405927  0.31037932     0.16900
C1621       C  0.80214844  0.98522525  0.33230624    -0.01400
C1622       C  0.82276474  0.00812166  0.33861440     0.07200
C1623       C  0.82151349  0.03490039  0.32256106    -0.07300
C1624       C  0.80113878  0.03854091  0.29923872     0.04700
C1625       C  0.78120695  0.01522287  0.29199851    -0.14600
C1626       C  0.78132896  0.98902801  0.30922667    -0.07900
C1627       C  0.84716121  0.00419834  0.36047493     0.05600
C1628       C  0.87229006  0.98752591  0.35216380    -0.09000
C1629       C  0.89712707  0.98551778  0.37107512     0.00600
C1630       C  0.89679166  0.00022520  0.39902854     0.00500
C1631       C  0.87130616  0.01658835  0.40732095    -0.12600
C1632       C  0.84671941  0.01879745  0.38828234     0.00900
C1633       C  0.92222069  0.96779035  0.36142713     0.40200
C1634       C  0.82126712  0.03611953  0.39772613     0.36900
C1635       C  0.80273049  0.95737943  0.34853062     0.36600
C1636       C  0.80151246  0.06622657  0.28271560     0.37400
N1637       N  0.94228810  0.95361937  0.35350974    -0.43400
N1638       N  0.80087638  0.04998317  0.40533909    -0.43900
N1639       N  0.80178076  0.08851145  0.26963513    -0.41200
N1640       N  0.80330818  0.93505484  0.36153621    -0.42700
H1641       H  0.76641470  0.97084862  0.30348324     0.13500
H1642       H  0.83728747  0.05257555  0.32757207     0.10000
H1643       H  0.87263944  0.97645834  0.33060159     0.11000
H1644       H  0.87068923  0.02804252  0.42867703     0.16900
C1645       C  0.14586194  0.87465759  0.48042272    -0.01400
C1646       C  0.14150095  0.84820325  0.49691520     0.07200
C1647       C  0.11410679  0.84353735  0.51115718    -0.07300
C1648       C  0.09120716  0.86482452  0.50948346     0.04700
C1649       C  0.09553577  0.89172829  0.49330637    -0.14600
C1650       C  0.12301577  0.89607830  0.47870781    -0.07900
C1651       C  0.16545104  0.82542816  0.50039875     0.05600
C1652       C  0.18262585  0.82532249  0.52661217    -0.09000
C1653       C  0.20474904  0.80366657  0.53121467     0.00600
C1654       C  0.21030414  0.78179828  0.50918456     0.00500
C1655       C  0.19268361  0.78154969  0.48322255    -0.12600
C1656       C  0.17044471  0.80315437  0.47867753     0.00900
C1657       C  0.22025428  0.80315256  0.55946677     0.40200
C1658       C  0.15262299  0.80178886  0.45186026     0.36900
C1659       C  0.17387358  0.88055672  0.46571071     0.36600
C1660       C  0.06410094  0.85885029  0.52579588     0.37400
N1661       N  0.23261673  0.80253460  0.58216946    -0.43400
N1662       N  0.13824370  0.80068545  0.43040752    -0.43900
N1663       N  0.04244105  0.85383110  0.53888717    -0.41200
N1664       N  0.19636519  0.88528124  0.45398300    -0.42700
H1665       H  0.12681490  0.91645053  0.46618044     0.13500
H1666       H  0.11075617  0.82326804  0.52399670     0.10000
H1667       H  0.17839198  0.84194454  0.54371857     0.11000
H1668       H  0.19649901  0.76453860  0.46642552     0.16900
C1669       C  0.84341163  0.88217836  0.49750672    -0.01400
C1670       C  0.85026614  0.85143425  0.49556175     0.07200
C1671       C  0.88018059  0.84316485  0.49199781    -0.07300
C1672       C  0.90316065  0.86453631  0.49129097     0.04700
C1673       C  0.89667697  0.89553430  0.49458290    -0.14600
C1674       C  0.86637412  0.90371456  0.49725808    -0.07900
C1675       C  0.82683262  0.82743083  0.49698334     0.05600
C1676       C  0.82283265  0.80815037  0.47244642    -0.09000
C1677       C  0.80147650  0.78510179  0.47309204     0.00600
C1678       C  0.78381783  0.78062842  0.49880543     0.00500
C1679       C  0.78795292  0.79969442  0.52338566    -0.12600
C1680       C  0.80921210  0.82274517  0.52276514     0.00900
C1681       C  0.79717255  0.76720319  0.44665078     0.40200
C1682       C  0.81309509  0.84071020  0.54925058     0.36900
C1683       C  0.81286118  0.89222590  0.49890632     0.36600
C1684       C  0.93306033  0.85345082  0.48695484     0.37400
N1685       N  0.79374120  0.75291703  0.42537230    -0.43400
N1686       N  0.81609428  0.85509882  0.57052118    -0.43900
N1687       N  0.95695191  0.84431488  0.48360170    -0.41200
N1688       N  0.78835109  0.90021432  0.49996351    -0.42700
H1689       H  0.86041191  0.92708905  0.49915689     0.13500
H1690       H  0.88568373  0.81966163  0.48996693     0.10000
H1691       H  0.83619215  0.81139427  0.45252784     0.11000
H1692       H  0.77463554  0.79629501  0.54330254     0.16900
C1693       C  0.85252731  0.11448131  0.48525648    -0.01400
C1694       C  0.85674189  0.14071957  0.50209022     0.07200
C1695       C  0.88352547  0.14471328  0.51772187    -0.07300
C1696       C  0.90622094  0.12314635  0.51647667     0.04700
C1697       C  0.90188229  0.09639520  0.50001152    -0.14600
C1698       C  0.87473776  0.09244068  0.48470415    -0.07900
C1699       C  0.83336664  0.16423630  0.50340922     0.05600
C1700       C  0.81549085  0.16655322  0.52901160    -0.09000
C1701       C  0.79227361  0.18748172  0.53043042     0.00600
C1702       C  0.78679731  0.20664160  0.50601745     0.00500
C1703       C  0.80494431  0.20458862  0.48060560    -0.12600
C1704       C  0.82800525  0.18352982  0.47906892     0.00900
C1705       C  0.77479858  0.18939929  0.55739212     0.40200
C1706       C  0.84586094  0.18198626  0.45230257     0.36900
C1707       C  0.82562251  0.11006889  0.46808584     0.36600
C1708       C  0.93347195  0.12912089  0.53260291     0.37400
N1709       N  0.76082293  0.19080141  0.57907036    -0.43400
N1710       N  0.86014478  0.18060506  0.43082859    -0.43900
N1711       N  0.95530949  0.13433901  0.54535721    -0.41200
N1712       N  0.80403947  0.10714760  0.45421294    -0.42700
H1713       H  0.87106674  0.07231453  0.47173762     0.13500
H1714       H  0.88684739  0.16496226  0.53061204     0.10000
H1715       H  0.81952863  0.15178172  0.54778720     0.11000
H1716       H  0.80078925  0.21923664  0.46180719     0.16900
C1717       C  0.11541956  0.14323454  0.48221114    -0.01400
C1718       C  0.14312795  0.13907530  0.49645448     0.07200
C1719       C  0.14894606  0.11181425  0.51076830    -0.07300
C1720       C  0.12773367  0.08873320  0.51093000     0.04700
C1721       C  0.09997539  0.09265544  0.49632563    -0.14600
C1722       C  0.09425701  0.12014715  0.48211620    -0.07900
C1723       C  0.16578560  0.16335767  0.49804337     0.05600
C1724       C  0.16875369  0.17951789  0.52470846    -0.09000
C1725       C  0.19058124  0.20172482  0.52774444     0.00600
C1726       C  0.20998266  0.20817547  0.50378157     0.00500
C1727       C  0.20693038  0.19210539  0.47700345    -0.12600
C1728       C  0.18495668  0.16993352  0.47392311     0.00900
C1729       C  0.19379784  0.21623626  0.55631280     0.40200
C1730       C  0.18277592  0.15384980  0.44606528     0.36900
C1731       C  0.10788980  0.17136931  0.46840516     0.36600
C1732       C  0.13451564  0.06194373  0.52756478     0.37400
N1733       N  0.19623419  0.22742864  0.57949019    -0.43400
N1734       N  0.18097238  0.14098819  0.42370539    -0.43900
N1735       N  0.13988246  0.04051754  0.54098855    -0.41200
N1736       N  0.10183349  0.19400791  0.45752191    -0.42700
H1737       H  0.07307957  0.12372176  0.47096743     0.13500
H1738       H  0.17002887  0.10874202  0.52224885     0.10000
H1739       H  0.15423743  0.17439851  0.54339070     0.11000
H1740       H  0.22187816  0.19684351  0.45858749     0.16900
C1741       C  0.99015530  0.65602356  0.19239282    -0.01400
C1742       C  0.01179649  0.65385970  0.16968827     0.07200
C1743       C  0.03630731  0.67317575  0.16993342    -0.07300
C1744       C  0.03840704  0.69591993  0.19124133     0.04700
C1745       C  0.01554935  0.69968075  0.21262326    -0.14600
C1746       C  0.99216504  0.67887906  0.21373922    -0.07900
C1747       C  0.00849908  0.63263805  0.14455720     0.05600
C1748       C  0.99325395  0.64181504  0.11875020    -0.09000
C1749       C  0.98980777  0.62248396  0.09431549     0.00600
C1750       C  0.00182850  0.59330982  0.09562724     0.00500
C1751       C  0.01708897  0.58436435  0.12168388    -0.12600
C1752       C  0.02054468  0.60373462  0.14593271     0.00900
C1753       C  0.97302776  0.63288674  0.06880096     0.40200
C1754       C  0.03664983  0.59359477  0.17196536     0.36900
C1755       C  0.96500581  0.63593788  0.19314189     0.36600
C1756       C  0.06380338  0.71571649  0.19021634     0.37400
N1757       N  0.95954910  0.64133719  0.04841958    -0.43400
N1758       N  0.04957404  0.58554131  0.19285007    -0.43900
N1759       N  0.08413127  0.73160545  0.18945646    -0.41200
N1760       N  0.94492747  0.61972187  0.19352952    -0.42700
H1761       H  0.97438833  0.68170182  0.22988527     0.13500
H1762       H  0.05328672  0.67109115  0.15281548     0.10000
H1763       H  0.98391538  0.66413527  0.11779840     0.11000
H1764       H  0.02672635  0.56219412  0.12305438     0.16900
C1765       C  0.01719415  0.79696262  0.33740737    -0.01400
C1766       C  0.99351011  0.81761567  0.33878803     0.07200
C1767       C  0.97039242  0.81604029  0.31786518    -0.07300
C1768       C  0.97170340  0.79570983  0.29426256     0.04700
C1769       C  0.99643440  0.77645575  0.29149564    -0.14600
C1770       C  0.01847407  0.77643027  0.31376950    -0.07900
C1771       C  0.99395201  0.84318748  0.35959027     0.05600
C1772       C  0.00423012  0.87081085  0.34904876    -0.09000
C1773       C  0.00466991  0.89599996  0.36760086     0.00600
C1774       C  0.99454499  0.89368441  0.39742495     0.00500
C1775       C  0.98371471  0.86585445  0.40752005    -0.12600
C1776       C  0.98340680  0.84077866  0.38898679     0.00900
C1777       C  0.01627748  0.92344918  0.35544840     0.40200
C1778       C  0.97192579  0.81294815  0.40051815     0.36900
C1779       C  0.04117597  0.79770999  0.35893838     0.36600
C1780       C  0.94817127  0.79603914  0.27223204     0.37400
N1781       N  0.02545747  0.94536731  0.34535087    -0.43400
N1782       N  0.96265230  0.79073153  0.40988768    -0.43900
N1783       N  0.92941786  0.79634517  0.25446595    -0.41200
N1784       N  0.06033851  0.79832065  0.37626205    -0.42700
H1785       H  0.03767751  0.76189485  0.31156653     0.13500
H1786       H  0.95204448  0.83176523  0.31915520     0.10000
H1787       H  0.01210708  0.87260021  0.32620291     0.11000
H1788       H  0.97536094  0.86354815  0.43008070     0.16900
C1789       C  0.95956218  0.33079048  0.80740067    -0.01400
C1790       C  0.98820027  0.34058096  0.81611609     0.07200
C1791       C  0.01338238  0.32908117  0.80156078    -0.07300
C1792       C  0.01050831  0.30671686  0.77996270     0.04700
C1793       C  0.98204310  0.29557805  0.77269574    -0.14600
C1794       C  0.95672169  0.30824682  0.78593519    -0.07900
C1795       C  0.99244499  0.36068354  0.84210610     0.05600
C1796       C  0.98192503  0.35153166  0.87017146    -0.09000
C1797       C  0.98448485  0.37004558  0.89522894     0.00600
C1798       C  0.99813448  0.39839304  0.89245503     0.00500
C1799       C  0.00977919  0.40686187  0.86446280    -0.12600
C1800       C  0.00709181  0.38833709  0.83947189     0.00900
C1801       C  0.97164853  0.35969224  0.92290235     0.40200
C1802       C  0.01884752  0.39853005  0.81122442     0.36900
C1803       C  0.93292895  0.34283681  0.82095601     0.36600
C1804       C  0.03721538  0.29332654  0.76798543     0.37400
N1805       N  0.96125839  0.35103996  0.94490747    -0.43400
N1806       N  0.02840727  0.40655115  0.78859609    -0.43900
N1807       N  0.05864993  0.28244272  0.75862507    -0.41200
N1808       N  0.91170875  0.35255754  0.83196987    -0.42700
H1809       H  0.93484176  0.29935480  0.78068798     0.13500
H1810       H  0.03543930  0.33631760  0.80836917     0.10000
H1811       H  0.97124335  0.32990853  0.87238532     0.11000
H1812       H  0.02074046  0.42829661  0.86190359     0.16900
C1813       C  0.97439504  0.19010784  0.65446785    -0.01400
C1814       C  0.99637389  0.16767395  0.65624940     0.07200
C1815       C  0.01717048  0.16813450  0.67952499    -0.07300
C1816       C  0.01528361  0.18957518  0.70202608     0.04700
C1817       C  0.99237065  0.21116420  0.70120980    -0.14600
C1818       C  0.97255680  0.21179776  0.67697827    -0.07900
C1819       C  0.99762161  0.14272565  0.63477739     0.05600
C1820       C  0.01325883  0.14661456  0.60811718    -0.09000
C1821       C  0.01618998  0.12310261  0.58780286     0.00600
C1822       C  0.00295770  0.09495723  0.59403432     0.00500
C1823       C  0.98767401  0.09112206  0.62115937    -0.12600
C1824       C  0.98495327  0.11474215  0.64148920     0.00900
C1825       C  0.03347160  0.12860956  0.56114329     0.40200
C1826       C  0.96888011  0.10995929  0.66901669     0.36900
C1827       C  0.95288063  0.19042946  0.63047173     0.36600
C1828       C  0.03703088  0.18892288  0.72586167     0.37400
N1829       N  0.04733132  0.13343828  0.53989117    -0.43400
N1830       N  0.95604821  0.10623824  0.69112667    -0.43900
N1831       N  0.05458701  0.18859852  0.74482273    -0.41200
N1832       N  0.93568491  0.19059405  0.61117983    -0.42700
H1833       H  0.95479319  0.22821485  0.67646147     0.13500
H1834       H  0.03440144  0.15116738  0.68050988     0.10000
H1835       H  0.02346503  0.16805543  0.60334081     0.11000
H1836       H  0.97720046  0.06988869  0.62618985     0.16900
C1837       C  0.05524803  0.66557901  0.81465175    -0.01400
C1838       C  0.02648537  0.65426639  0.82001239     0.07200
C1839       C  0.00251183  0.66398227  0.80247363    -0.07300
C1840       C  0.00664102  0.68580197  0.78048445     0.04700
C1841       C  0.03527690  0.69795978  0.77574605    -0.14600
C1842       C  0.05940156  0.68750791  0.79279162    -0.07900
C1843       C  0.02074251  0.63329008  0.84478463     0.05600
C1844       C  0.01583334  0.64466148  0.87353708    -0.09000
C1845       C  0.01066694  0.62552984  0.89778211     0.00600
C1846       C  0.00986103  0.59418915  0.89320191     0.00500
C1847       C  0.01513740  0.58317352  0.86407167    -0.12600
C1848       C  0.02059675  0.60233531  0.84011269     0.00900
C1849       C  0.00700531  0.63890469  0.92691242     0.40200
C1850       C  0.02654956  0.58969790  0.81101966     0.36900
C1851       C  0.08056711  0.65533716  0.83175561     0.36600
C1852       C  0.98072900  0.69711400  0.76506392     0.37400
N1853       N  0.00432549  0.64962353  0.95029564    -0.43400
N1854       N  0.03142738  0.57945243  0.78778974    -0.43900
N1855       N  0.95977575  0.70612256  0.75295942    -0.41200
N1856       N  0.10076436  0.64687286  0.84544719    -0.42700
H1857       H  0.08132179  0.69723284  0.78966193     0.13500
H1858       H  0.98035733  0.65528849  0.80676859     0.10000
H1859       H  0.01634542  0.66862428  0.87705338     0.11000
H1860       H  0.01539520  0.55935761  0.85976551     0.16900
C1861       C  0.04222657  0.79890229  0.65092942    -0.01400
C1862       C  0.01727062  0.81813568  0.65156679     0.07200
C1863       C  0.99539470  0.81407071  0.67354066    -0.07300
C1864       C  0.99924852  0.79293839  0.69615134     0.04700
C1865       C  0.02514153  0.77513252  0.69667466    -0.14600
C1866       C  0.04598299  0.77753781  0.67351903    -0.07900
C1867       C  0.01382532  0.84350934  0.63054036     0.05600
C1868       C  0.98894984  0.84405735  0.61157878    -0.09000
C1869       C  0.98381657  0.86829902  0.59255718     0.00600
C1870       C  0.00382696  0.89261788  0.59231527     0.00500
C1871       C  0.02838236  0.89242103  0.61176303    -0.12600
C1872       C  0.03343441  0.86820390  0.63093956     0.00900
C1873       C  0.95718428  0.86824007  0.57444168     0.40200
C1874       C  0.05825468  0.86965909  0.65147586     0.36900
C1875       C  0.06452679  0.80118033  0.62781159     0.36600
C1876       C  0.97720309  0.79108998  0.71959230     0.37400
N1877       N  0.93561868  0.86816322  0.56024762    -0.43400
N1878       N  0.07811126  0.87088133  0.66796181    -0.43900
N1879       N  0.95962376  0.78971667  0.73845140    -0.41200
N1880       N  0.08245725  0.80300675  0.60932654    -0.42700
H1881       H  0.06598067  0.76393620  0.67404437     0.13500
H1882       H  0.97597289  0.82849537  0.67387660     0.10000
H1883       H  0.97336122  0.82554148  0.61184366     0.11000
H1884       H  0.04387045  0.91102791  0.61165661     0.16900
C1885       C  0.15382399  0.69255649  0.52109126    -0.01400
C1886       C  0.15627813  0.67000497  0.49911172     0.07200
C1887       C  0.18020005  0.67067245  0.47908123    -0.07300
C1888       C  0.20287484  0.69175131  0.48220441     0.04700
C1889       C  0.20176984  0.71274863  0.50567762    -0.14600
C1890       C  0.17662382  0.71381071  0.52421368    -0.07900
C1891       C  0.13563925  0.64418634  0.49757025     0.05600
C1892       C  0.11828461  0.64014978  0.47179727    -0.09000
C1893       C  0.10021602  0.61486549  0.46852787     0.00600
C1894       C  0.09876913  0.59353093  0.49167149     0.00500
C1895       C  0.11702136  0.59689481  0.51688117    -0.12600
C1896       C  0.13578409  0.62174099  0.51974505     0.00900
C1897       C  0.08488767  0.61029424  0.44051109     0.40200
C1898       C  0.15610728  0.62294672  0.54475648     0.36900
C1899       C  0.12866846  0.69379711  0.54113742     0.36600
C1900       C  0.22773326  0.69065130  0.46174748     0.37400
N1901       N  0.07327179  0.60643881  0.41773486    -0.43400
N1902       N  0.17269389  0.62367422  0.56456416    -0.43900
N1903       N  0.24765146  0.68974023  0.44536348    -0.41200
N1904       N  0.10856009  0.69500388  0.55727495    -0.42700
H1905       H  0.17565772  0.73004171  0.54217924     0.13500
H1906       H  0.18189960  0.65372054  0.46184429     0.10000
H1907       H  0.11933850  0.65652061  0.45396637     0.11000
H1908       H  0.11637421  0.58024962  0.53448021     0.16900
C1909       C  0.89011586  0.34181560  0.48502498    -0.01400
C1910       C  0.86117579  0.34492997  0.49665770     0.07200
C1911       C  0.85168436  0.37304374  0.50679849    -0.07300
C1912       C  0.87061653  0.39795684  0.50567437     0.04700
C1913       C  0.89982010  0.39488908  0.49410001    -0.14600
C1914       C  0.90898153  0.36660856  0.48368488    -0.07900
C1915       C  0.84055538  0.31913060  0.49925070     0.05600
C1916       C  0.83158195  0.30991722  0.52782315    -0.09000
C1917       C  0.80955953  0.28806714  0.53134303     0.00600
C1918       C  0.79611998  0.27516653  0.50596804     0.00500
C1919       C  0.80611646  0.28324816  0.47742313    -0.12600
C1920       C  0.82830970  0.30495762  0.47386237     0.00900
C1921       C  0.80015446  0.28019404  0.56115968     0.40200
C1922       C  0.83683632  0.31357241  0.44397741     0.36900
C1923       C  0.90125928  0.31323333  0.47511028     0.36600
C1924       C  0.85976597  0.42580475  0.51777471     0.37400
N1925       N  0.79276004  0.27393747  0.58512209    -0.43400
N1926       N  0.84388953  0.32035158  0.42005166    -0.43900
N1927       N  0.85085233  0.44798832  0.52758287    -0.41200
N1928       N  0.91008942  0.29033310  0.46705067    -0.42700
H1929       H  0.93121436  0.36364508  0.47465572     0.13500
H1930       H  0.82941541  0.37542803  0.51592438     0.10000
H1931       H  0.84116294  0.32052670  0.54739590     0.11000
H1932       H  0.79530914  0.27390916  0.45785150     0.16900
C1933       C  0.14501664  0.37337975  0.48914816    -0.01400
C1934       C  0.13725436  0.34517544  0.50067049     0.07200
C1935       C  0.10829969  0.34022240  0.51101058    -0.07300
C1936       C  0.08693451  0.36292967  0.51007413     0.04700
C1937       C  0.09434850  0.39123668  0.49780209    -0.14600
C1938       C  0.12352807  0.39596614  0.48741162    -0.07900
C1939       C  0.15954974  0.32115799  0.50425911     0.05600
C1940       C  0.17387628  0.31820857  0.53188305    -0.09000
C1941       C  0.19623422  0.29687683  0.53597726     0.00600
C1942       C  0.20388805  0.27739607  0.51237457     0.00500
C1943       C  0.18862569  0.27956449  0.48505688    -0.12600
C1944       C  0.16681922  0.30158043  0.48072065     0.00900
C1945       C  0.21148311  0.29596162  0.56438570     0.40200
C1946       C  0.15313345  0.30466151  0.45167710     0.36900
C1947       C  0.17518260  0.38006378  0.48021966     0.36600
C1948       C  0.05834377  0.35677693  0.52357951     0.37400
N1949       N  0.22359660  0.29539645  0.58722128    -0.43400
N1950       N  0.14226995  0.30741477  0.42837352    -0.43900
N1951       N  0.03561948  0.35155044  0.53462104    -0.41200
N1952       N  0.19939922  0.38571075  0.47337348    -0.42700
H1953       H  0.12973485  0.41748065  0.47820437     0.13500
H1954       H  0.10263799  0.31871376  0.52062081     0.10000
H1955       H  0.16817914  0.33326548  0.54999467     0.11000
H1956       H  0.19501633  0.26527820  0.46656648     0.16900
C1957       C  0.89203754  0.64987481  0.48516445    -0.01400
C1958       C  0.86188485  0.64548524  0.49241526     0.07200
C1959       C  0.85194523  0.61680420  0.49998913    -0.07300
C1960       C  0.87157644  0.59250294  0.50068913     0.04700
C1961       C  0.90220663  0.59682018  0.49396752    -0.14600
C1962       C  0.91188690  0.62580995  0.48630490    -0.07900
C1963       C  0.83976924  0.67000125  0.49089278     0.05600
C1964       C  0.81762429  0.66852832  0.46886792    -0.09000
C1965       C  0.79391752  0.68872790  0.46881987     0.00600
C1966       C  0.79230417  0.71113629  0.49099394     0.00500
C1967       C  0.81536528  0.71372999  0.51196942    -0.12600
C1968       C  0.83893513  0.69320137  0.51224992     0.00900
C1969       C  0.77102094  0.68542653  0.44632435     0.40200
C1970       C  0.86066003  0.69509369  0.53596832     0.36900
C1971       C  0.90281732  0.67851339  0.47506392     0.36600
C1972       C  0.85927673  0.56370776  0.50840492     0.37400
N1973       N  0.75268408  0.68273844  0.42831438    -0.43400
N1974       N  0.87788882  0.69678168  0.55515378    -0.43900
N1975       N  0.84906668  0.54075381  0.51444075    -0.41200
N1976       N  0.91148319  0.70136265  0.46669509    -0.42700
H1977       H  0.93499639  0.62973667  0.48042441     0.13500
H1978       H  0.82857401  0.61339040  0.50521076     0.10000
H1979       H  0.81832166  0.65082783  0.45232463     0.11000
H1980       H  0.81387078  0.73045639  0.52943437     0.16900
C1981       C  0.15996587  0.51662806  0.29904289    -0.01400
C1982       C  0.16186626  0.49382837  0.32073267     0.07200
C1983       C  0.18451272  0.47243787  0.31859739    -0.07300
C1984       C  0.20608103  0.47440477  0.29612175     0.04700
C1985       C  0.20521388  0.49816733  0.27537578    -0.14600
C1986       C  0.18162263  0.51865090  0.27650211    -0.07900
C1987       C  0.14056581  0.49208523  0.34598906     0.05600
C1988       C  0.11343643  0.47733222  0.34172737    -0.09000
C1989       C  0.09228775  0.47583444  0.36467917     0.00600
C1990       C  0.09802157  0.48971469  0.39262457     0.00500
C1991       C  0.12578953  0.50362691  0.39705897    -0.12600
C1992       C  0.14698933  0.50486776  0.37406114     0.00900
C1993       C  0.06537350  0.45911000  0.35896294     0.40200
C1994       C  0.17500155  0.51974442  0.37959984     0.36900
C1995       C  0.13673187  0.53886746  0.30039529     0.36600
C1996       C  0.22926740  0.45204894  0.29497015     0.37400
N1997       N  0.04396462  0.44556391  0.35404940    -0.43400
N1998       N  0.19745701  0.53163557  0.38413477    -0.43900
N1999       N  0.24779289  0.43411004  0.29375963    -0.41200
N2000       N  0.11806536  0.55665294  0.30162647    -0.42700
H2001       H  0.18106623  0.53714208  0.26086568     0.13500
H2002       H  0.18568175  0.45456654  0.33491274     0.10000
H2003       H  0.10878611  0.46695179  0.32031448     0.11000
H2004       H  0.13070000  0.51423149  0.41828952     0.16900
C2005       C  0.89298372  0.50252133  0.33724473    -0.01400
C2006       C  0.86243219  0.50723789  0.34203681     0.07200
C2007       C  0.85139441  0.50735704  0.37135895    -0.07300
C2008       C  0.87045690  0.50383986  0.39597934     0.04700
C2009       C  0.90147296  0.49945889  0.39142225    -0.14600
C2010       C  0.91206595  0.49850249  0.36166645    -0.07900
C2011       C  0.84188092  0.51432983  0.31701524     0.05600
C2012       C  0.83398209  0.49204312  0.29639815    -0.09000
C2013       C  0.81200093  0.49739593  0.27470136     0.00600
C2014       C  0.79796966  0.52560930  0.27337665     0.00500
C2015       C  0.80735934  0.54832280  0.29275533    -0.12600
C2016       C  0.82904150  0.54291647  0.31447815     0.00900
C2017       C  0.80251199  0.47285823  0.25605053     0.40200
C2018       C  0.83695553  0.56671427  0.33474513     0.36900
C2019       C  0.90546916  0.50319799  0.30751149     0.36600
C2020       C  0.85735654  0.50603859  0.42535097     0.37400
N2021       N  0.79511085  0.45295072  0.24130904    -0.43400
N2022       N  0.84327546  0.58566511  0.35114452    -0.43900
N2023       N  0.84657326  0.50800635  0.44875365    -0.41200
N2024       N  0.91542266  0.50388221  0.28367187    -0.42700
H2025       H  0.93558841  0.49529144  0.35719856     0.13500
H2026       H  0.82778424  0.51112123  0.37501826     0.10000
H2027       H  0.84391682  0.47004263  0.29824741     0.11000
H2028       H  0.79640620  0.56990909  0.29203637     0.16900
C2029       C  0.10993291  0.52020855  0.64366896    -0.01400
C2030       C  0.13716377  0.50463704  0.64379038     0.07200
C2031       C  0.14420388  0.48585643  0.61966245    -0.07300
C2032       C  0.12459614  0.48265386  0.59537445     0.04700
C2033       C  0.09737233  0.49850923  0.59506175    -0.14600
C2034       C  0.09035475  0.51704098  0.61950278    -0.07900
C2035       C  0.15916104  0.50850488  0.66830175     0.05600
C2036       C  0.16189754  0.48636417  0.69031585    -0.09000
C2037       C  0.18463671  0.48780408  0.71186463     0.00600
C2038       C  0.20478181  0.51204166  0.71177151     0.00500
C2039       C  0.20113500  0.53475109  0.69039844    -0.12600
C2040       C  0.17861789  0.53317075  0.66879448     0.00900
C2041       C  0.18857238  0.46268548  0.73164691     0.40200
C2042       C  0.17682107  0.55629968  0.64637850     0.36900
C2043       C  0.10157595  0.53940769  0.66819896     0.36600
C2044       C  0.13232387  0.46203361  0.57181452     0.37400
N2045       N  0.19168571  0.44229428  0.74721756    -0.43400
N2046       N  0.17533039  0.57477572  0.62836247    -0.43900
N2047       N  0.13841756  0.44539140  0.55299592    -0.41200
N2048       N  0.09484754  0.55474966  0.68788103    -0.42700
H2049       H  0.06951258  0.52932737  0.61965320     0.13500
H2050       H  0.16513221  0.47373601  0.61981003     0.10000
H2051       H  0.14703547  0.46727069  0.68982838     0.11000
H2052       H  0.21685242  0.55315187  0.68976320     0.16900
C2053       C  0.85640635  0.51197664  0.61753547    -0.01400
C2054       C  0.86126105  0.49374404  0.64282508     0.07200
C2055       C  0.88560523  0.47428272  0.64325349    -0.07300
C2056       C  0.90580974  0.47358874  0.61950723     0.04700
C2057       C  0.90160571  0.49250026  0.59448105    -0.14600
C2058       C  0.87646467  0.51111581  0.59354469    -0.07900
C2059       C  0.84083127  0.49416956  0.66881151     0.05600
C2060       C  0.82213129  0.46957732  0.67362161    -0.09000
C2061       C  0.79988273  0.47070317  0.69544970     0.00600
C2062       C  0.79640299  0.49662211  0.71299482     0.00500
C2063       C  0.81678829  0.52012857  0.71003709    -0.12600
C2064       C  0.83896679  0.51908612  0.68802897     0.00900
C2065       C  0.77968103  0.44575897  0.69838246     0.40200
C2066       C  0.85874617  0.54427229  0.68462658     0.36900
C2067       C  0.83101341  0.53169835  0.61576453     0.36600
C2068       C  0.93031681  0.45280032  0.62135697     0.37400
N2069       N  0.76339921  0.42586968  0.70084065    -0.43400
N2070       N  0.87461977  0.56442747  0.68172334    -0.43900
N2071       N  0.94981302  0.43601958  0.62330056    -0.41200
N2072       N  0.81069913  0.54756394  0.61442658    -0.42700
H2073       H  0.87295761  0.52562823  0.57446706     0.13500
H2074       H  0.88900885  0.45983671  0.66241838     0.10000
H2075       H  0.82392885  0.45013231  0.65928116     0.11000
H2076       H  0.81399425  0.54016635  0.72336153     0.16900
C2077       C  0.97697337  0.67822765  0.31609199    -0.01400
C2078       C  0.00341545  0.66422498  0.32616513     0.07200
C2079       C  0.03069053  0.67235735  0.31301695    -0.07300
C2080       C  0.03190761  0.69428372  0.29066509     0.04700
C2081       C  0.00565546  0.70865538  0.28123779    -0.14600
C2082       C  0.97837936  0.70064612  0.29420479    -0.07900
C2083       C  0.00315757  0.64061296  0.34979410     0.05600
C2084       C  0.01398299  0.61204261  0.34286716    -0.09000
C2085       C  0.01403991  0.58902304  0.36417483     0.00600
C2086       C  0.00295953  0.59428733  0.39340068     0.00500
C2087       C  0.99282027  0.62325148  0.40042584    -0.12600
C2088       C  0.99295525  0.64625061  0.37910329     0.00900
C2089       C  0.02650312  0.56059559  0.35546383     0.40200
C2090       C  0.98308090  0.67562723  0.38803818     0.36900
C2091       C  0.94808089  0.66903286  0.32688713     0.36600
C2092       C  0.06035569  0.70245976  0.27812610     0.37400
N2093       N  0.03652303  0.53783964  0.34844569    -0.43400
N2094       N  0.97503665  0.69915089  0.39507915    -0.43900
N2095       N  0.08308269  0.70921977  0.26796336    -0.41200
N2096       N  0.92495494  0.66152671  0.33551740    -0.42700
H2097       H  0.95813912  0.71152447  0.28666631     0.13500
H2098       H  0.05110276  0.66167505  0.32039102     0.10000
H2099       H  0.02237244  0.60766596  0.32056286     0.11000
H2100       H  0.98453996  0.62803125  0.42267875     0.16900
C2101       C  0.98105968  0.34404138  0.60640818    -0.01400
C2102       C  0.99504670  0.34681120  0.63447261     0.07200
C2103       C  0.01185922  0.37249571  0.64064419    -0.07300
C2104       C  0.01419871  0.39572014  0.61969263     0.04700
C2105       C  0.99896032  0.39373188  0.59206985    -0.14600
C2106       C  0.98284751  0.36746124  0.58568361    -0.07900
C2107       C  0.99200207  0.32356833  0.65803512     0.05600
C2108       C  0.01503820  0.30285521  0.66236582    -0.09000
C2109       C  0.01367240  0.28175948  0.68556441     0.00600
C2110       C  0.98876405  0.28112770  0.70492333     0.00500
C2111       C  0.96575716  0.30192967  0.70043300    -0.12600
C2112       C  0.96714525  0.32295726  0.67726864     0.00900
C2113       C  0.03884071  0.26222422  0.68972713     0.40200
C2114       C  0.94300220  0.34399423  0.67390733     0.36900
C2115       C  0.96531329  0.31715937  0.59812080     0.36600
C2116       C  0.03339809  0.42063123  0.62666294     0.37400
N2117       N  0.05942986  0.24691859  0.69252883    -0.43400
N2118       N  0.92361187  0.36082663  0.67125660    -0.43900
N2119       N  0.04902354  0.44042861  0.63223759    -0.41200
N2120       N  0.95295476  0.29556828  0.59113961    -0.42700
H2121       H  0.97141257  0.36521612  0.56443187     0.13500
H2122       H  0.02322079  0.37437173  0.66196708     0.10000
H2123       H  0.03437368  0.30351724  0.64784645     0.11000
H2124       H  0.94654784  0.30160537  0.71510620     0.16900
C2125       C  0.01092501  0.60827230  0.64595506    -0.01400
C2126       C  0.00840219  0.63898017  0.63936988     0.07200
C2127       C  0.00178961  0.64747396  0.60989549    -0.07300
C2128       C  0.99825745  0.62612309  0.58710629     0.04700
C2129       C  0.00263913  0.59527448  0.59324278    -0.14600
C2130       C  0.00857510  0.58693490  0.62306691    -0.07900
C2131       C  0.01371749  0.66242181  0.66270685     0.05600
C2132       C  0.04128572  0.66300770  0.67763735    -0.09000
C2133       C  0.04746927  0.68451834  0.69956994     0.00600
C2134       C  0.02606495  0.70644826  0.70673709     0.00500
C2135       C  0.99869416  0.70630998  0.69147517    -0.12600
C2136       C  0.99219788  0.68431208  0.66999611     0.00900
C2137       C  0.07645214  0.68433391  0.71352913     0.40200
C2138       C  0.96292965  0.68394866  0.65659944     0.36900
C2139       C  0.01477094  0.59807971  0.67633323     0.36600
C2140       C  0.98887797  0.63671682  0.55809599     0.37400
N2141       N  0.09980465  0.68393373  0.72452587    -0.43400
N2142       N  0.93942027  0.68349437  0.64594503    -0.43900
N2143       N  0.98097578  0.64524478  0.53499142    -0.41200
N2144       N  0.01751729  0.59010953  0.70078066    -0.42700
H2145       H  0.01136281  0.56356942  0.62873955     0.13500
H2146       H  0.99935584  0.67098798  0.60463188     0.10000
H2147       H  0.05818940  0.64666172  0.67193818     0.11000
H2148       H  0.98217814  0.72313849  0.69679766     0.16900
C2149       C  0.98710838  0.32658709  0.18784460    -0.01400
C2150       C  0.01098124  0.33671056  0.16990438     0.07200
C2151       C  0.03996390  0.32667588  0.17618738    -0.07300
C2152       C  0.04499276  0.30516569  0.19833672     0.04700
C2153       C  0.02076931  0.29315259  0.21438500    -0.14600
C2154       C  0.99214170  0.30476939  0.20976591    -0.07900
C2155       C  0.00618980  0.35724635  0.14416020     0.05600
C2156       C  0.99523884  0.38594686  0.14950021    -0.09000
C2157       C  0.99075367  0.40611808  0.12604923     0.00600
C2158       C  0.99860797  0.39821806  0.09623257     0.00500
C2159       C  0.00879001  0.36896238  0.09091433    -0.12600
C2160       C  0.01217203  0.34846192  0.11445411     0.00900
C2161       C  0.97711276  0.43430134  0.13365735     0.40200
C2162       C  0.02059494  0.31813412  0.10753113     0.36900
C2163       C  0.95704316  0.33702235  0.18308803     0.36600
C2164       C  0.07508260  0.29514406  0.20396226     0.37400
N2165       N  0.96602000  0.45667793  0.14020312    -0.43400
N2166       N  0.02691399  0.29368469  0.10207572    -0.43900
N2167       N  0.09908208  0.28700843  0.20883917    -0.41200
N2168       N  0.93297455  0.34555977  0.17941117    -0.42700
H2169       H  0.97343427  0.29547561  0.22195458     0.13500
H2170       H  0.05856494  0.33512250  0.16323398     0.10000
H2171       H  0.98996597  0.39257869  0.17221503     0.11000
H2172       H  0.01433489  0.36204711  0.06837482     0.16900
C2173       C  0.99022004  0.19235740  0.33137095    -0.01400
C2174       C  0.01337572  0.17292216  0.34005099     0.07200
C2175       C  0.04159034  0.17594247  0.32702853    -0.07300
C2176       C  0.04640500  0.19654743  0.30406212     0.04700
C2177       C  0.02267923  0.21457297  0.29381343    -0.14600
C2178       C  0.99502000  0.21307724  0.30836163    -0.07900
C2179       C  0.00839798  0.14807423  0.36133711     0.05600
C2180       C  0.99452860  0.12186506  0.35117578    -0.09000
C2181       C  0.99134293  0.09695564  0.36997053     0.00600
C2182       C  0.00213667  0.09815307  0.39967442     0.00500
C2183       C  0.01564419  0.12481218  0.40971302    -0.12600
C2184       C  0.01889213  0.14950522  0.39088344     0.00900
C2185       C  0.97648822  0.07085385  0.35827532     0.40200
C2186       C  0.03304518  0.17611740  0.40234667     0.36900
C2187       C  0.96120256  0.19070860  0.34515456     0.36600
C2188       C  0.07567386  0.19822337  0.29074120     0.37400
N2189       N  0.96459182  0.04994803  0.34882856    -0.43400
N2190       N  0.04432040  0.19746459  0.41155338    -0.43900
N2191       N  0.09908193  0.19958308  0.27998235    -0.41200
N2192       N  0.93797619  0.18937886  0.35630026    -0.42700
H2193       H  0.97663670  0.22668579  0.30052415     0.13500
H2194       H  0.05957792  0.16135670  0.33406604     0.10000
H2195       H  0.98650872  0.12077585  0.32832509     0.11000
H2196       H  0.02422421  0.12633763  0.43232932     0.16900
C2197       C  0.99003112  0.37763415  0.34417407    -0.01400
C2198       C  0.00000107  0.34857752  0.35091984     0.07200
C2199       C  0.00772951  0.34152728  0.38038814    -0.07300
C2200       C  0.00610972  0.36299079  0.40309754     0.04700
C2201       C  0.99707961  0.39268980  0.39627274    -0.14600
C2202       C  0.98868403  0.39931886  0.36670123    -0.07900
C2203       C  0.00408900  0.32559909  0.32735902     0.05600
C2204       C  0.03317129  0.31727480  0.31948894    -0.09000
C2205       C  0.03819393  0.29560707  0.29753483     0.00600
C2206       C  0.01392369  0.28233021  0.28264899     0.00500
C2207       C  0.98479003  0.29040409  0.29061403    -0.12600
C2208       C  0.97971077  0.31157382  0.31319103     0.00900
C2209       C  0.06839856  0.28675642  0.29104436     0.40200
C2210       C  0.94951557  0.31764991  0.32249219     0.36900
C2211       C  0.98192449  0.38599341  0.31410591     0.36600
C2212       C  0.01445958  0.35362265  0.43286466     0.37400
N2213       N  0.09268763  0.27957033  0.28618335    -0.43400
N2214       N  0.92541729  0.32245396  0.33034233    -0.43900
N2215       N  0.02092978  0.34584721  0.45667165    -0.41200
N2216       N  0.97534262  0.39277249  0.29003850    -0.42700
H2217       H  0.98126177  0.42164262  0.36098994     0.13500
H2218       H  0.01530475  0.31911181  0.38559991     0.10000
H2219       H  0.05197217  0.32761926  0.33069700     0.11000
H2220       H  0.96612024  0.27967807  0.27959681     0.16900
loop_ 
_geom_bond_atom_site_label_1 
_geom_bond_atom_site_label_2 
_geom_bond_distance 
_geom_bond_site_symmetry_2 
_ccdc_geom_bond_type 
N1            C5   1.355       .  A
N1            C2   1.356       .  A
N1         C2206   1.438       .  S
C2            C3   1.383       .  A
C2         C2177   1.480       .  S
C3            C4   1.372       .  A
C3            H6   1.082       .  S
C4            C5   1.381       .  A
C4            H7   1.082       .  S
C5         C2153   1.478       .  S
O8          Zr44   2.416       .  S
O8           C19   1.287       .  A
O9          Zr43   2.444       .  S
O9           C20   1.294       .  A
O10         Zr16   2.425       .  S
O10          C21   1.291       .  A
O11         Zr16   2.433   1_455  S
O11          C22   1.292       .  A
O12         Zr46   2.460       .  S
O12          C22   1.297       .  A
O13         Zr45   2.463       .  S
O13          C21   1.297       .  A
O14         Zr16   2.453   1_455  S
O14          C20   1.295       .  A
O15         Zr16   2.459       .  S
O15          C19   1.297       .  A
Zr16         O17   2.340   1_655  S
Zr16         O18   2.341       .  S
Zr16         O26   2.339   1_655  S
Zr16         O24   2.344       .  S
O17         Zr43   2.342       .  S
O17         Zr46   2.348       .  S
O18         Zr44   2.334       .  S
O18         Zr45   2.345       .  S
C19        C2201   1.494       .  S
C20        C2086   1.499       .  S
C21        C2009   1.501       .  S
C22        C1990   1.490       .  S
H23          O24   0.967       .  S
O24         Zr43   2.338   1_655  S
O24         Zr45   2.349       .  S
H25          O26   0.966       .  S
O26         Zr44   2.335   1_455  S
O26         Zr46   2.347       .  S
O27         Zr43   2.451       .  S
O27          C50   1.294       .  A
O28         Zr44   2.422       .  S
O28          C51   1.289       .  A
O29         Zr45   2.441       .  S
O29          C52   1.292       .  A
O30         Zr46   2.455       .  S
O30          C53   1.295       .  A
O31         Zr46   2.456       .  S
O31          C54   1.296       .  A
O32         Zr45   2.456       .  S
O32          C55   1.295       .  A
O33         Zr47   2.424       .  S
O33          C56   1.290       .  A
O34         Zr47   2.424   1_455  S
O34          C57   1.290       .  A
O35         Zr45   2.458       .  S
O35          C56   1.296       .  A
O36         Zr46   2.464       .  S
O36          C57   1.297       .  A
O37         Zr43   2.435   1_655  S
O37          C52   1.293       .  A
O38         Zr44   2.418       .  S
O38          C55   1.289       .  A
O39         Zr44   2.413   1_455  S
O39          C54   1.287       .  A
O40         Zr43   2.426       .  S
O40          C53   1.290       .  A
O41         Zr47   2.454   1_455  S
O41          C50   1.296       .  A
O42         Zr47   2.465   1_455  S
O42          C51   1.297   1_455  A
Zr43         O49   2.341   1_455  S
Zr43         O61   2.338       .  S
Zr44         O48   2.337   1_655  S
Zr44         O59   2.327       .  S
Zr45         O49   2.351       .  S
Zr45         O59   2.346       .  S
Zr46         O48   2.345       .  S
Zr46         O61   2.347       .  S
Zr47         O48   2.336   1_655  S
Zr47         O49   2.345       .  S
Zr47         O61   2.342   1_655  S
Zr47         O59   2.340       .  S
C50        C2129   1.506       .  S
C51        C2105   1.492       .  S
C52        C1961   1.494       .  S
C53        C1894   1.473       .  S
C54        C1937   1.486       .  S
C55        C1913   1.490       .  S
C56        C2057   1.480       .  S
C57        C2033   1.486       .  S
H58          O59   0.968       .  S
H60          O61   0.968       .  S
N62          C66   1.355       .  A
N62          C63   1.358       .  A
N62        C2134   1.447       .  S
C63          C64   1.382       .  A
C63        C1841   1.475       .  S
C64          C65   1.371       .  A
C64          H67   1.082       .  S
C65          C66   1.380       .  A
C65          H68   1.082       .  S
C66        C1865   1.471       .  S
N69          C73   1.357       .  A
N69          C70   1.357       .  A
N69        C2110   1.448       .  S
C70          C71   1.380       .  A
C70        C1793   1.471       .  S
C71          C72   1.369       .  A
C71          H74   1.082       .  S
C72          C73   1.382       .  A
C72          H75   1.082       .  S
C73        C1817   1.472       .  S
N76          C80   1.357       .  A
N76          C77   1.355       .  A
N76        C2081   1.441       .  S
C77          C78   1.381       .  A
C77        C1769   1.476   1_455  S
C78          C79   1.371       .  A
C78          H81   1.082       .  S
C79          C80   1.383       .  A
C79          H82   1.082       .  S
C80        C1745   1.480       .  S
O83        Zr119   2.469   1_545  S
O83          C94   1.298       .  A
O84        Zr118   2.463   1_545  S
O84          C95   1.297       .  A
O85         Zr91   2.444   1_655  S
O85          C96   1.292       .  A
O86         Zr91   2.440       .  S
O86          C97   1.292       .  A
O87        Zr121   2.454   1_545  S
O87          C97   1.295       .  A
O88        Zr120   2.454   1_545  S
O88          C96   1.295       .  A
O89         Zr91   2.411       .  S
O89          C95   1.287       .  A
O90         Zr91   2.414   1_655  S
O90          C94   1.289       .  A
Zr91         O92   2.339       .  S
Zr91         O93   2.337   1_455  S
Zr91        O101   2.337       .  S
Zr91         O99   2.335   1_455  S
O92        Zr118   2.347   1_545  S
O92        Zr121   2.343   1_545  S
O93        Zr119   2.350   1_545  S
O93        Zr120   2.343   1_545  S
C94        C2182   1.492   1_655  S
C95        C1822   1.484       .  S
C96        C1697   1.493       .  S
C97        C1721   1.494       .  S
H98          O99   0.966       .  S
O99        Zr118   2.348   1_645  S
O99        Zr120   2.344   1_545  S
H100        O101   0.967       .  S
O101       Zr119   2.343   1_445  S
O101       Zr121   2.337   1_545  S
O102       Zr118   2.453       .  S
O102        C125   1.295       .  A
O103       Zr119   2.462       .  S
O103        C126   1.297       .  A
O104       Zr120   2.412       .  S
O104        C127   1.288       .  A
O105       Zr121   2.413       .  S
O105        C128   1.288       .  A
O106       Zr121   2.417       .  S
O106        C129   1.288       .  A
O107       Zr120   2.417       .  S
O107        C130   1.289       .  A
O108       Zr122   2.451       .  S
O108        C131   1.293       .  A
O109       Zr122   2.444   1_455  S
O109        C132   1.293       .  A
O110       Zr120   2.471       .  S
O110        C131   1.298       .  A
O111       Zr121   2.457       .  S
O111        C132   1.295       .  A
O112       Zr118   2.464   1_655  S
O112        C127   1.297       .  A
O113       Zr119   2.454       .  S
O113        C130   1.296       .  A
O114       Zr119   2.472   1_455  S
O114        C129   1.299       .  A
O115       Zr118   2.465       .  S
O115        C128   1.298       .  A
O116       Zr122   2.428       .  S
O116        C125   1.290   1_655  A
O117       Zr122   2.406       .  S
O117        C126   1.288       .  A
Zr118       O124   2.354   1_455  S
Zr118       O136   2.345       .  S
Zr119       O123   2.348   1_655  S
Zr119       O134   2.355       .  S
Zr120       O124   2.343       .  S
Zr120       O134   2.335       .  S
Zr121       O123   2.338       .  S
Zr121       O136   2.337       .  S
Zr122       O123   2.346   1_655  S
Zr122       O124   2.334       .  S
Zr122       O136   2.333   1_655  S
Zr122       O134   2.337       .  S
C125       C1870   1.476       .  S
C126       C1774   1.488       .  S
C127       C1558   1.475       .  S
C128       C1577   1.485       .  S
C129       C1601   1.493       .  S
C130       C1630   1.481   1_565  S
C131       C1673   1.517       .  S
C132       C1649   1.496       .  S
H133        O134   0.966       .  S
H135        O136   0.966       .  S
N137        C141   1.356       .  A
N137        C138   1.359       .  A
N137       C1726   1.445       .  S
C138        C139   1.383       .  A
C138       C1942   1.478       .  S
C139        C140   1.372       .  A
C139        H142   1.082       .  S
C140        C141   1.380       .  A
C140        H143   1.082       .  S
C141       C1529   1.474       .  S
N144        C148   1.357       .  A
N144        C145   1.356       .  A
N144       C1702   1.442       .  S
C145        C146   1.380       .  A
C145       C1918   1.475       .  S
C146        C147   1.373       .  A
C146        H149   1.082       .  S
C147        C148   1.382       .  A
C147        H150   1.082       .  S
C148       C1505   1.478       .  S
N151        C155   1.361       .  A
N151        C152   1.358       .  A
N151       C1678   1.451       .  S
C152        C153   1.381       .  A
C152       C1481   1.473       .  S
C153        C154   1.368       .  A
C153        H156   1.082       .  S
C154        C155   1.383       .  A
C154        H157   1.083       .  S
C155       C1966   1.477       .  S
N158        C162   1.360       .  A
N158        C159   1.357       .  A
N158       C1654   1.446       .  S
C159        C160   1.381       .  A
C159       C1889   1.475       .  S
C160        C161   1.370       .  A
C160        H163   1.082       .  S
C161        C162   1.382       .  A
C161        H164   1.082       .  S
C162       C1457   1.480       .  S
N165        C169   1.357       .  A
N165        C166   1.359       .  A
N165       C1438   1.446       .  S
C166        C167   1.382       .  A
C166       C1625   1.479       .  S
C167        C168   1.371       .  A
C167        H170   1.082       .  S
C168        C169   1.381       .  A
C168        H171   1.082       .  S
C169       C1409   1.477   1_545  S
O172       Zr208   2.459       .  S
O172        C183   1.296       .  A
O173       Zr207   2.454       .  S
O173        C184   1.295       .  A
O174       Zr180   2.441       .  S
O174        C185   1.293       .  A
O175       Zr180   2.427       .  S
O175        C186   1.289       .  A
O176       Zr210   2.450       .  S
O176        C186   1.295       .  A
O177       Zr209   2.458       .  S
O177        C185   1.295       .  A
O178       Zr180   2.414       .  S
O178        C184   1.288       .  A
O179       Zr180   2.416   1_545  S
O179        C183   1.289       .  A
Zr180       O181   2.334       .  S
Zr180       O182   2.327   1_565  S
Zr180       O190   2.342   1_565  S
Zr180       O188   2.341       .  S
O181       Zr207   2.343       .  S
O181       Zr210   2.334       .  S
O182       Zr208   2.344       .  S
O182       Zr209   2.334   1_545  S
C183       C1534   1.490       .  S
C184       C1462   1.479       .  S
C185       C1342   1.500       .  S
C186       C1390   1.491       .  S
H187        O188   0.966       .  S
O188       Zr207   2.357       .  S
O188       Zr209   2.346       .  S
H189        O190   0.965       .  S
O190       Zr208   2.341       .  S
O190       Zr210   2.340   1_545  S
O191       Zr207   2.461       .  S
O191        C214   1.296       .  A
O192       Zr208   2.452       .  S
O192        C215   1.295       .  A
O193       Zr209   2.423       .  S
O193        C216   1.290       .  A
O194       Zr210   2.422       .  S
O194        C217   1.288       .  A
O195       Zr210   2.420   1_545  S
O195        C218   1.289       .  A
O196       Zr209   2.425   1_545  S
O196        C219   1.291       .  A
O197       Zr211   2.445       .  S
O197        C220   1.293       .  A
O198       Zr211   2.441       .  S
O198        C221   1.292       .  A
O199       Zr209   2.453       .  S
O199        C220   1.295       .  A
O200       Zr210   2.452       .  S
O200        C221   1.295       .  A
O201       Zr207   2.459       .  S
O201        C216   1.297       .  A
O202       Zr208   2.450       .  S
O202        C219   1.294       .  A
O203       Zr208   2.465       .  S
O203        C218   1.297       .  A
O204       Zr207   2.465       .  S
O204        C217   1.298       .  A
O205       Zr211   2.425       .  S
O205        C214   1.291       .  A
O206       Zr211   2.423   1_545  S
O206        C215   1.290       .  A
Zr207       O213   2.349       .  S
Zr207       O225   2.346       .  S
Zr208       O212   2.342       .  S
Zr208       O223   2.352       .  S
Zr209       O213   2.344       .  S
Zr209       O223   2.345   1_565  S
Zr210       O212   2.333   1_565  S
Zr210       O225   2.338       .  S
Zr211       O212   2.337   1_565  S
Zr211       O213   2.335       .  S
Zr211       O225   2.341       .  S
Zr211       O223   2.343   1_565  S
C214       C1486   1.494       .  S
C215       C1510   1.493       .  S
C216       C1270   1.485       .  S
C217       C1313   1.502       .  S
C218       C1289   1.477       .  S
C219       C1241   1.495       .  S
C220       C1433   1.490       .  S
C221       C1361   1.499       .  S
H222        O223   0.966       .  S
H224        O225   0.966       .  S
N226        C230   1.354       .  A
N226        C227   1.355       .  A
N226       C1385   1.440       .  S
C227        C228   1.382       .  A
C227       C1222   1.476       .  S
C228        C229   1.372       .  A
C228        H231   1.082       .  S
C229        C230   1.381       .  A
C229        H232   1.082       .  S
C230       C1582   1.475       .  S
N233        C237   1.355       .  A
N233        C234   1.354       .  A
N233       C1366   1.442       .  S
C234        C235   1.382       .  A
C234       C1553   1.473       .  S
C235        C236   1.372       .  A
C235        H238   1.082       .  S
C236        C237   1.380       .  A
C236        H239   1.082       .  S
C237       C1193   1.473       .  S
N240        C244   1.356       .  A
N240        C241   1.359       .  A
N240       C1337   1.443       .  S
C241        C242   1.384       .  A
C241       C1606   1.483       .  S
C242        C243   1.371       .  A
C242        H245   1.082       .  S
C243        C244   1.379       .  A
C243        H246   1.082       .  S
C244       C1174   1.475       .  S
O247       Zr283   2.461   1_554  S
O247        C258   1.296       .  A
O248       Zr282   2.451   1_554  S
O248        C259   1.295       .  A
O249       Zr255   2.448   1_545  S
O249        C260   1.294       .  A
O250       Zr255   2.443       .  S
O250        C261   1.293       .  A
O251       Zr285   2.466   1_554  S
O251        C261   1.298       .  A
O252       Zr284   2.442   1_554  S
O252        C260   1.293       .  A
O253       Zr255   2.415       .  S
O253        C259   1.288       .  A
O254       Zr255   2.420       .  S
O254        C258   1.290       .  A
Zr255       O256   2.337       .  S
Zr255       O257   2.334   1_565  S
Zr255       O265   2.336       .  S
Zr255       O263   2.339   1_565  S
O256       Zr282   2.343   1_554  S
O256       Zr285   2.338   1_554  S
O257       Zr283   2.341   1_544  S
O257       Zr284   2.339   1_554  S
C258       C1414   1.497       .  S
C259       C1169   1.482       .  S
C260       C1145   1.494       .  S
C261       C1121   1.501       .  S
H262        O263   0.965       .  S
O263       Zr282   2.345   1_544  S
O263       Zr284   2.342   1_554  S
H264        O265   0.965       .  S
O265       Zr283   2.341   1_554  S
O265       Zr285   2.340   1_554  S
O266       Zr282   2.447       .  S
O266        C289   1.293       .  A
O267       Zr283   2.451       .  S
O267        C290   1.295       .  A
O268       Zr284   2.418       .  S
O268        C291   1.290       .  A
O269       Zr285   2.430       .  S
O269        C292   1.291       .  A
O270       Zr285   2.427       .  S
O270        C293   1.290       .  A
O271       Zr284   2.418       .  S
O271        C294   1.289       .  A
O272       Zr286   2.455   1_545  S
O272        C295   1.295       .  A
O273       Zr286   2.442       .  S
O273        C296   1.292       .  A
O274       Zr284   2.449       .  S
O274        C295   1.293       .  A
O275       Zr285   2.449       .  S
O275        C296   1.295       .  A
O276       Zr282   2.449   1_545  S
O276        C291   1.294       .  A
O277       Zr283   2.457   1_545  S
O277        C294   1.297       .  A
O278       Zr283   2.461       .  S
O278        C293   1.296       .  A
O279       Zr282   2.449       .  S
O279        C292   1.294       .  A
O280       Zr286   2.435   1_545  S
O280        C289   1.291   1_545  A
O281       Zr286   2.426       .  S
O281        C290   1.291       .  A
Zr282       O288   2.346   1_565  S
Zr282       O300   2.349       .  S
Zr283       O287   2.346       .  S
Zr283       O298   2.354   1_565  S
Zr284       O288   2.333       .  S
Zr284       O298   2.339       .  S
Zr285       O287   2.339       .  S
Zr285       O300   2.348       .  S
Zr286       O287   2.343       .  S
Zr286       O288   2.332   1_565  S
Zr286       O300   2.348       .  S
Zr286       O298   2.343   1_565  S
C289       C1217   1.473   1_565  S
C290       C1198   1.491       .  S
C291       C1049   1.484       .  S
C292       C1001   1.477       .  S
C293       C1030   1.478       .  S
C294        C977   1.481       .  S
C295       C1073   1.510       .  S
C296       C1097   1.500       .  S
H297        O298   0.966       .  S
H299        O300   0.966       .  S
N301        C305   1.356       .  A
N301        C302   1.351       .  A
N301       C1150   1.444       .  S
C302        C303   1.379       .  A
C302        C958   1.466       .  S
C303        C304   1.373       .  A
C303        H306   1.082       .  S
C304        C305   1.384       .  A
C304        H307   1.082       .  S
C305       C1246   1.476       .  S
N308        C312   1.357       .  A
N308        C309   1.355       .  A
N308       C1126   1.444       .  S
C309        C310   1.381       .  A
C309        C929   1.472       .  S
C310        C311   1.373       .  A
C310        H313   1.082       .  S
C311        C312   1.381       .  A
C311        H314   1.082       .  S
C312       C1265   1.476       .  S
N315        C319   1.359       .  A
N315        C316   1.360       .  A
N315       C1102   1.446       .  S
C316        C317   1.381       .  A
C316       C1318   1.479       .  S
C317        C318   1.371       .  A
C317        H320   1.082       .  S
C318        C319   1.380       .  A
C318        H321   1.082       .  S
C319        C905   1.478       .  S
N322        C326   1.357       .  A
N322        C323   1.358       .  A
N322       C1078   1.445       .  S
C323        C324   1.382       .  A
C323        C881   1.478       .  S
C324        C325   1.371       .  A
C324        H327   1.082       .  S
C325        C326   1.381       .  A
C325        H328   1.082       .  S
C326       C1294   1.477       .  S
O329       Zr365   2.475   1_554  S
O329        C340   1.300       .  A
O330       Zr364   2.455   1_554  S
O330        C341   1.296       .  A
O331       Zr337   2.450   1_455  S
O331        C342   1.295       .  A
O332       Zr337   2.459       .  S
O332        C343   1.297       .  A
O333       Zr367   2.446   1_554  S
O333        C343   1.293       .  A
O334       Zr366   2.431   1_554  S
O334        C342   1.291       .  A
O335       Zr337   2.422       .  S
O335        C341   1.290       .  A
O336       Zr337   2.416       .  S
O336        C340   1.287       .  A
Zr337       O338   2.333       .  S
Zr337       O339   2.339   1_655  S
Zr337       O347   2.340       .  S
Zr337       O345   2.340   1_655  S
O338       Zr364   2.340   1_554  S
O338       Zr367   2.335   1_554  S
O339       Zr365   2.339   1_454  S
O339       Zr366   2.341   1_554  S
C340       C2158   1.499       .  S
C341       C1750   1.486   1_655  S
C342        C833   1.489       .  S
C343        C857   1.509       .  S
H344        O345   0.966       .  S
O345       Zr364   2.349   1_454  S
O345       Zr366   2.341   1_554  S
H346        O347   0.966       .  S
O347       Zr365   2.350   1_554  S
O347       Zr367   2.346   1_554  S
O348       Zr364   2.453   1_455  S
O348        C371   1.295       .  A
O349       Zr365   2.452       .  S
O349        C372   1.295       .  A
O350       Zr366   2.428       .  S
O350        C373   1.291       .  A
O351       Zr367   2.420       .  S
O351        C374   1.289       .  A
O352       Zr367   2.422       .  S
O352        C375   1.290       .  A
O353       Zr366   2.423       .  S
O353        C376   1.289       .  A
O354       Zr368   2.462   1_455  S
O354        C377   1.297       .  A
O355       Zr368   2.451       .  S
O355        C378   1.294       .  A
O356       Zr366   2.448       .  S
O356        C377   1.292       .  A
O357       Zr367   2.454       .  S
O357        C378   1.295       .  A
O358       Zr364   2.462   1_455  S
O358        C373   1.297       .  A
O359       Zr365   2.459   1_455  S
O359        C376   1.296       .  A
O360       Zr365   2.452       .  S
O360        C375   1.295       .  A
O361       Zr364   2.479       .  S
O361        C374   1.300       .  A
O362       Zr368   2.412   1_455  S
O362        C371   1.289       .  A
O363       Zr368   2.421       .  S
O363        C372   1.290       .  A
Zr364       O370   2.348   1_655  S
Zr364       O382   2.354       .  S
Zr365       O369   2.351       .  S
Zr365       O380   2.358   1_655  S
Zr366       O370   2.330       .  S
Zr366       O380   2.336       .  S
Zr367       O369   2.334       .  S
Zr367       O382   2.346       .  S
Zr368       O369   2.339       .  S
Zr368       O370   2.333   1_655  S
Zr368       O382   2.350       .  S
Zr368       O380   2.340   1_655  S
C371       C1846   1.494       .  S
C372       C1798   1.486       .  S
C373        C742   1.495       .  S
C374        C689   1.489   1_556  S
C375        C713   1.491       .  S
C376        C761   1.476       .  S
C377        C809   1.511       .  S
C378        C785   1.496       .  S
H379        O380   0.965       .  S
H381        O382   0.964       .  S
N383        C387   1.357       .  A
N383        C384   1.355       .  A
N383        C862   1.444       .  S
C384        C385   1.381       .  A
C384        C665   1.469       .  S
C385        C386   1.371       .  A
C385        H388   1.082       .  S
C386        C387   1.382       .  A
C386        H389   1.082       .  S
C387       C2014   1.476       .  S
N390        C394   1.357       .  A
N390        C391   1.355       .  A
N390        C838   1.441       .  S
C391        C392   1.380       .  A
C391        C641   1.473       .  S
C392        C393   1.372       .  A
C392        H395   1.082       .  S
C393        C394   1.382       .  A
C393        H396   1.082       .  S
C394       C1985   1.478       .  S
N397        C401   1.357       .  A
N397        C398   1.362       .  A
N397        C814   1.447       .  S
C398        C399   1.383       .  A
C398       C2038   1.484       .  S
C399        C400   1.370       .  A
C399        H402   1.082       .  S
C400        C401   1.380       .  A
C400        H403   1.082       .  S
C401        C617   1.474       .  S
N404        C408   1.357       .  A
N404        C405   1.362       .  A
N404        C790   1.448       .  S
C405        C406   1.384       .  A
C405        C593   1.481       .  S
C406        C407   1.368       .  A
C406        H409   1.082       .  S
C407        C408   1.379       .  A
C407        H410   1.082       .  S
C408       C2062   1.472       .  S
N411        C415   1.360       .  A
N411        C412   1.359       .  A
N411        C569   1.445       .  S
C412        C413   1.380       .  A
C412       C1054   1.478       .  S
C413        C414   1.369       .  A
C413        H416   1.082       .  S
C414        C415   1.383       .  A
C414        H417   1.082       .  S
C415        C766   1.482       .  S
O418       Zr454   2.457       .  S
O418        C429   1.297       .  A
O419       Zr453   2.465       .  S
O419        C430   1.297       .  A
O420       Zr426   2.447       .  S
O420        C431   1.293       .  A
O421       Zr426   2.457       .  S
O421        C432   1.295       .  A
O422       Zr456   2.452       .  S
O422        C432   1.295       .  A
O423       Zr455   2.449       .  S
O423        C431   1.295       .  A
O424       Zr426   2.420       .  S
O424        C430   1.290       .  A
O425       Zr426   2.417   1_554  S
O425        C429   1.289       .  A
Zr426       O427   2.334       .  S
Zr426       O428   2.342   1_556  S
Zr426       O436   2.341   1_556  S
Zr426       O434   2.340       .  S
O427       Zr453   2.347       .  S
O427       Zr456   2.335       .  S
O428       Zr454   2.343       .  S
O428       Zr455   2.340   1_554  S
C429        C953   1.479       .  S
C430        C886   1.497       .  S
C431        C574   1.503       .  S
C432        C502   1.510       .  S
H433        O434   0.964       .  S
O434       Zr453   2.346       .  S
O434       Zr455   2.338       .  S
H435        O436   0.965       .  S
O436       Zr454   2.360       .  S
O436       Zr456   2.336   1_554  S
O437       Zr453   2.463       .  S
O437        C460   1.298       .  A
O438       Zr454   2.461       .  S
O438        C461   1.297       .  A
O439       Zr455   2.416       .  S
O439        C462   1.288       .  A
O440       Zr456   2.424       .  S
O440        C463   1.290       .  A
O441       Zr456   2.428   1_554  S
O441        C464   1.291       .  A
O442       Zr455   2.412   1_554  S
O442        C465   1.288       .  A
O443       Zr457   2.456       .  S
O443        C466   1.295       .  A
O444       Zr457   2.444       .  S
O444        C467   1.294   1_556  A
O445       Zr455   2.458       .  S
O445        C466   1.296       .  A
O446       Zr456   2.430       .  S
O446        C467   1.290   1_556  A
O447       Zr453   2.453       .  S
O447        C462   1.295       .  A
O448       Zr454   2.457       .  S
O448        C465   1.296       .  A
O449       Zr454   2.442       .  S
O449        C464   1.293       .  A
O450       Zr453   2.450       .  S
O450        C463   1.294       .  A
O451       Zr457   2.425       .  S
O451        C460   1.290       .  A
O452       Zr457   2.417   1_554  S
O452        C461   1.288       .  A
Zr453       O459   2.350       .  S
Zr453       O471   2.348       .  S
Zr454       O458   2.339       .  S
Zr454       O469   2.347       .  S
Zr455       O459   2.341       .  S
Zr455       O469   2.335   1_556  S
Zr456       O458   2.337   1_556  S
Zr456       O471   2.340       .  S
Zr457       O458   2.335   1_556  S
Zr457       O459   2.340       .  S
Zr457       O471   2.338       .  S
Zr457       O469   2.338   1_556  S
C460        C910   1.485       .  S
C461        C934   1.482       .  S
C462        C622   1.475       .  S
C463        C598   1.471       .  S
C464        C670   1.476       .  S
C465        C646   1.477       .  S
C466        C521   1.507       .  S
C467        C545   1.498       .  S
H468        O469   0.964       .  S
H470        O471   0.965       .  S
N472        C476   1.359       .  A
N472        C473   1.360       .  A
N472        C550   1.441       .  S
C473        C474   1.383       .  A
C473        C694   1.487       .  S
C474        C475   1.373       .  A
C474        H477   1.082       .  S
C475        C476   1.381       .  A
C475        H478   1.082       .  S
C476       C1025   1.486       .  S
N479        C483   1.358       .  A
N479        C480   1.358       .  A
N479        C526   1.447       .  S
C480        C481   1.382       .  A
C480       C1006   1.475       .  S
C481        C482   1.370       .  A
C481        H484   1.082       .  S
C482        C483   1.380       .  A
C482        H485   1.082       .  S
C483        C737   1.474       .  S
N486        C490   1.362       .  A
N486        C487   1.360       .  A
N486        C497   1.451       .  S
C487        C488   1.382       .  A
C487        C718   1.478       .  S
C488        C489   1.366       .  A
C488        H491   1.082       .  S
C489        C490   1.381       .  A
C489        H492   1.083       .  S
C490        C982   1.476       .  S
C493        C494   1.412       .  A
C493        C498   1.403       .  A
C493        C507   1.443       .  S
C494        C495   1.406   1_556  A
C494        C499   1.497       .  S
C495        C496   1.408       .  A
C495        H514   1.084       .  S
C496        C497   1.413   1_554  A
C496        C508   1.441       .  S
C497        C498   1.406       .  A
C498        H513   1.084       .  S
C499        C500   1.403       .  A
C499        C504   1.409       .  A
C500        C501   1.408       .  A
C500        H515   1.085       .  S
C501        C502   1.423       .  A
C501        C505   1.444       .  S
C502        C503   1.412       .  A
C503        C504   1.406       .  A
C503        H516   1.083       .  S
C504        C506   1.444       .  S
C505        N509   1.157       .  T
C506        N510   1.157   1_556  T
C507        N512   1.157       .  T
C508        N511   1.157       .  T
C517        C518   1.417       .  A
C517        C522   1.408       .  A
C517        C531   1.444       .  S
C518        C519   1.408   1_554  A
C518        C523   1.512       .  S
C519        C520   1.408       .  A
C519        H538   1.084       .  S
C520        C521   1.419       .  A
C520        C532   1.444       .  S
C521        C522   1.409   1_556  A
C522        H537   1.085       .  S
C523        C524   1.409       .  A
C523        C528   1.421   1_554  A
C524        C525   1.407       .  A
C524        H539   1.084       .  S
C525        C526   1.409       .  A
C525        C529   1.443       .  S
C526        C527   1.401   1_554  A
C527        C528   1.409       .  A
C527        H540   1.084       .  S
C528        C530   1.443       .  S
C529        N533   1.157       .  T
C530        N534   1.157       .  T
C531        N536   1.157       .  T
C532        N535   1.157       .  T
C541        C542   1.407       .  A
C541        C546   1.399       .  A
C541        C555   1.444       .  S
C542        C543   1.400       .  A
C542        C547   1.482       .  S
C543        C544   1.400       .  A
C543        H562   1.085       .  S
C544        C545   1.423       .  A
C544        C556   1.445       .  S
C545        C546   1.411       .  A
C546        H561   1.084       .  S
C547        C548   1.401       .  A
C547        C552   1.411   1_554  A
C548        C549   1.398       .  A
C548        H563   1.085       .  S
C549        C550   1.412       .  A
C549        C553   1.442       .  S
C550        C551   1.403   1_554  A
C551        C552   1.400       .  A
C551        H564   1.084       .  S
C552        C554   1.444       .  S
C553        N557   1.157       .  T
C554        N558   1.157       .  T
C555        N560   1.157       .  T
C556        N559   1.158   1_554  T
C565        C566   1.410   1_554  A
C565        C570   1.403       .  A
C565        C579   1.443       .  S
C566        C567   1.402       .  A
C566        C571   1.487       .  S
C567        C568   1.402       .  A
C567        H586   1.085       .  S
C568        C569   1.412       .  A
C568        C580   1.442       .  S
C569        C570   1.405   1_556  A
C570        H585   1.084       .  S
C571        C572   1.399       .  A
C571        C576   1.407   1_556  A
C572        C573   1.403       .  A
C572        H587   1.085       .  S
C573        C574   1.423       .  A
C573        C577   1.443       .  S
C574        C575   1.413   1_556  A
C575        C576   1.405       .  A
C575        H588   1.084       .  S
C576        C578   1.444       .  S
C577        N581   1.157       .  T
C578        N582   1.157       .  T
C579        N584   1.157       .  T
C580        N583   1.157       .  T
C589        C590   1.412       .  A
C589        C594   1.402       .  A
C589        C603   1.443       .  S
C590        C591   1.400       .  A
C590        C595   1.483       .  S
C591        C592   1.396       .  A
C591        H610   1.085       .  S
C592        C593   1.415       .  A
C592        C604   1.445       .  S
C593        C594   1.404       .  A
C594        H609   1.084       .  S
C595        C596   1.401       .  A
C595        C600   1.413       .  A
C596        C597   1.397       .  A
C596        H611   1.085       .  S
C597        C598   1.412       .  A
C597        C601   1.444       .  S
C598        C599   1.401       .  A
C599        C600   1.401       .  A
C599        H612   1.085       .  S
C600        C602   1.443       .  S
C601        N605   1.157       .  T
C602        N606   1.157       .  T
C603        N608   1.157       .  T
C604        N607   1.157       .  T
C613        C614   1.412       .  A
C613        C618   1.403       .  A
C613        C627   1.444       .  S
C614        C615   1.400       .  A
C614        C619   1.481       .  S
C615        C616   1.396       .  A
C615        H634   1.085       .  S
C616        C617   1.410       .  A
C616        C628   1.444       .  S
C617        C618   1.402       .  A
C618        H633   1.085       .  S
C619        C620   1.399       .  A
C619        C624   1.413       .  A
C620        C621   1.397       .  A
C620        H635   1.085       .  S
C621        C622   1.414       .  A
C621        C625   1.443       .  S
C622        C623   1.402       .  A
C623        C624   1.400       .  A
C623        H636   1.085       .  S
C624        C626   1.444       .  S
C625        N629   1.156       .  T
C626        N630   1.157       .  T
C627        N632   1.157       .  T
C628        N631   1.157       .  T
C637        C638   1.414       .  A
C637        C642   1.402       .  A
C637        C651   1.444       .  S
C638        C639   1.402       .  A
C638        C643   1.486       .  S
C639        C640   1.398       .  A
C639        H658   1.085       .  S
C640        C641   1.410       .  A
C640        C652   1.444       .  S
C641        C642   1.401       .  A
C642        H657   1.085       .  S
C643        C644   1.407       .  A
C643        C648   1.410       .  A
C644        C645   1.402       .  A
C644        H659   1.085       .  S
C645        C646   1.411       .  A
C645        C649   1.444       .  S
C646        C647   1.406       .  A
C647        C648   1.397       .  A
C647        H660   1.085       .  S
C648        C650   1.444       .  S
C649        N653   1.157       .  T
C650        N654   1.157       .  T
C651        N656   1.157       .  T
C652        N655   1.157       .  T
C661        C662   1.412       .  A
C661        C666   1.402       .  A
C661        C675   1.444       .  S
C662        C663   1.400       .  A
C662        C667   1.477       .  S
C663        C664   1.394       .  A
C663        H682   1.085       .  S
C664        C665   1.409       .  A
C664        C676   1.444       .  S
C665        C666   1.401       .  A
C666        H681   1.085       .  S
C667        C668   1.399       .  A
C667        C672   1.410       .  A
C668        C669   1.397       .  A
C668        H683   1.085       .  S
C669        C670   1.412       .  A
C669        C673   1.443       .  S
C670        C671   1.404       .  A
C671        C672   1.400       .  A
C671        H684   1.085       .  S
C672        C674   1.444       .  S
C673        N677   1.156       .  T
C674        N678   1.157       .  T
C675        N680   1.157       .  T
C676        N679   1.157       .  T
C685        C686   1.408       .  A
C685        C690   1.402       .  A
C685        C699   1.444       .  S
C686        C687   1.406   1_554  A
C686        C691   1.489       .  S
C687        C688   1.406       .  A
C687        H706   1.085       .  S
C688        C689   1.411   1_556  A
C688        C700   1.442       .  S
C689        C690   1.410       .  A
C690        H705   1.085       .  S
C691        C692   1.401       .  A
C691        C696   1.412   1_554  A
C692        C693   1.401       .  A
C692        H707   1.085       .  S
C693        C694   1.414       .  A
C693        C697   1.444       .  S
C694        C695   1.404       .  A
C695        C696   1.404   1_554  A
C695        H708   1.084   1_554  S
C696        C698   1.443       .  S
C697        N701   1.157       .  T
C698        N702   1.157       .  T
C699        N704   1.157       .  T
C700        N703   1.157       .  T
C709        C710   1.402       .  A
C709        C714   1.396       .  A
C709        C723   1.444       .  S
C710        C711   1.402       .  A
C710        C715   1.476       .  S
C711        C712   1.402       .  A
C711        H730   1.085       .  S
C712        C713   1.418       .  A
C712        C724   1.444   1_556  S
C713        C714   1.412       .  A
C714        H729   1.084       .  S
C715        C716   1.398       .  A
C715        C720   1.409       .  A
C716        C717   1.396       .  A
C716        H731   1.085       .  S
C717        C718   1.413       .  A
C717        C721   1.444       .  S
C718        C719   1.404       .  A
C719        C720   1.402       .  A
C719        H732   1.084   1_556  S
C720        C722   1.443   1_556  S
C721        N725   1.157       .  T
C722        N726   1.157       .  T
C723        N728   1.157       .  T
C724        N727   1.158       .  T
C733        C734   1.411       .  A
C733        C738   1.400       .  A
C733        C747   1.443       .  S
C734        C735   1.404   1_554  A
C734        C739   1.486       .  S
C735        C736   1.402       .  A
C735        H754   1.085       .  S
C736        C737   1.411   1_556  A
C736        C748   1.445       .  S
C737        C738   1.401       .  A
C738        H753   1.085       .  S
C739        C740   1.403       .  A
C739        C744   1.406   1_554  A
C740        C741   1.403       .  A
C740        H755   1.085       .  S
C741        C742   1.417   1_554  A
C741        C745   1.444       .  S
C742        C743   1.411       .  A
C743        C744   1.401       .  A
C743        H756   1.083       .  S
C744        C746   1.445       .  S
C745        N749   1.157       .  T
C746        N750   1.157       .  T
C747        N752   1.157       .  T
C748        N751   1.157       .  T
C757        C758   1.414   1_554  A
C757        C762   1.404       .  A
C757        C771   1.443       .  S
C758        C759   1.402       .  A
C758        C763   1.486       .  S
C759        C760   1.398       .  A
C759        H778   1.085       .  S
C760        C761   1.412       .  A
C760        C772   1.443       .  S
C761        C762   1.402   1_556  A
C762        H777   1.085       .  S
C763        C764   1.400       .  A
C763        C768   1.413   1_556  A
C764        C765   1.395       .  A
C764        H779   1.085       .  S
C765        C766   1.412       .  A
C765        C769   1.445       .  S
C766        C767   1.405   1_556  A
C767        C768   1.406       .  A
C767        H780   1.084       .  S
C768        C770   1.443       .  S
C769        N773   1.157       .  T
C770        N774   1.157       .  T
C771        N776   1.157       .  T
C772        N775   1.157       .  T
C781        C782   1.410       .  A
C781        C786   1.404       .  A
C781        C795   1.443       .  S
C782        C783   1.404       .  A
C782        C787   1.493       .  S
C783        C784   1.407       .  A
C783        H802   1.085       .  S
C784        C785   1.418       .  A
C784        C796   1.444       .  S
C785        C786   1.408       .  A
C786        H801   1.085       .  S
C787        C788   1.404       .  A
C787        C792   1.412       .  A
C788        C789   1.405       .  A
C788        H803   1.085       .  S
C789        C790   1.412       .  A
C789        C793   1.442       .  S
C790        C791   1.406       .  A
C791        C792   1.406       .  A
C791        H804   1.084       .  S
C792        C794   1.443       .  S
C793        N797   1.157       .  T
C794        N798   1.157       .  T
C795        N800   1.157       .  T
C796        N799   1.157       .  T
C805        C806   1.410       .  A
C805        C810   1.407       .  A
C805        C819   1.444       .  S
C806        C807   1.400       .  A
C806        C811   1.496       .  S
C807        C808   1.406       .  A
C807        H826   1.085       .  S
C808        C809   1.426       .  A
C808        C820   1.444       .  S
C809        C810   1.413       .  A
C810        H825   1.084       .  S
C811        C812   1.405       .  A
C811        C816   1.413       .  A
C812        C813   1.405       .  A
C812        H827   1.084       .  S
C813        C814   1.410       .  A
C813        C817   1.442       .  S
C814        C815   1.404       .  A
C815        C816   1.404       .  A
C815        H828   1.084       .  S
C816        C818   1.443       .  S
C817        N821   1.157       .  T
C818        N822   1.157       .  T
C819        N824   1.157       .  T
C820        N823   1.157       .  T
C829        C830   1.409       .  A
C829        C834   1.401       .  A
C829        C843   1.443       .  S
C830        C831   1.402       .  A
C830        C835   1.487       .  S
C831        C832   1.404       .  A
C831        H850   1.085       .  S
C832        C833   1.419       .  A
C832        C844   1.445       .  S
C833        C834   1.406       .  A
C834        H849   1.085       .  S
C835        C836   1.403       .  A
C835        C840   1.412       .  A
C836        C837   1.404       .  A
C836        H851   1.085       .  S
C837        C838   1.409       .  A
C837        C841   1.440       .  S
C838        C839   1.403       .  A
C839        C840   1.401       .  A
C839        H852   1.084       .  S
C840        C842   1.444       .  S
C841        N845   1.157       .  T
C842        N846   1.157       .  T
C843        N848   1.157       .  T
C844        N847   1.157       .  T
C853        C854   1.409       .  A
C853        C858   1.405       .  A
C853        C867   1.444       .  S
C854        C855   1.401       .  A
C854        C859   1.495       .  S
C855        C856   1.406       .  A
C855        H874   1.085       .  S
C856        C857   1.425       .  A
C856        C868   1.444       .  S
C857        C858   1.412       .  A
C858        H873   1.082       .  S
C859        C860   1.406       .  A
C859        C864   1.413       .  A
C860        C861   1.404       .  A
C860        H875   1.085       .  S
C861        C862   1.410       .  A
C861        C865   1.443       .  S
C862        C863   1.402       .  A
C863        C864   1.403       .  A
C863        H876   1.083       .  S
C864        C866   1.442       .  S
C865        N869   1.157       .  T
C866        N870   1.157       .  T
C867        N872   1.157       .  T
C868        N871   1.157       .  T
C877        C878   1.410       .  A
C877        C882   1.402       .  A
C877        C891   1.443       .  S
C878        C879   1.400       .  A
C878        C883   1.480       .  S
C879        C880   1.398       .  A
C879        H898   1.085       .  S
C880        C881   1.412       .  A
C880        C892   1.444       .  S
C881        C882   1.403       .  A
C882        H897   1.085       .  S
C883        C884   1.403       .  A
C883        C888   1.403       .  A
C884        C885   1.405       .  A
C884        H899   1.085       .  S
C885        C886   1.418       .  A
C885        C889   1.443       .  S
C886        C887   1.412       .  A
C887        C888   1.398       .  A
C887        H900   1.080       .  S
C888        C890   1.445       .  S
C889        N893   1.157       .  T
C890        N894   1.157       .  T
C891        N896   1.157       .  T
C892        N895   1.157       .  T
C901        C902   1.410       .  A
C901        C906   1.400       .  A
C901        C915   1.444       .  S
C902        C903   1.405       .  A
C902        C907   1.485       .  S
C903        C904   1.403       .  A
C903        H922   1.085       .  S
C904        C905   1.408       .  A
C904        C916   1.443       .  S
C905        C906   1.404       .  A
C906        H921   1.085       .  S
C907        C908   1.399       .  A
C907        C912   1.411       .  A
C908        C909   1.401       .  A
C908        H923   1.085       .  S
C909        C910   1.419       .  A
C909        C913   1.442       .  S
C910        C911   1.404       .  A
C911        C912   1.401       .  A
C911        H924   1.085       .  S
C912        C914   1.443       .  S
C913        N917   1.156       .  T
C914        N918   1.157       .  T
C915        N920   1.157       .  T
C916        N919   1.157       .  T
C925        C926   1.410       .  A
C925        C930   1.400       .  A
C925        C939   1.444       .  S
C926        C927   1.403       .  A
C926        C931   1.482       .  S
C927        C928   1.400       .  A
C927        H946   1.085       .  S
C928        C929   1.408       .  A
C928        C940   1.443       .  S
C929        C930   1.402       .  A
C930        H945   1.085       .  S
C931        C932   1.397       .  A
C931        C936   1.412       .  A
C932        C933   1.398       .  A
C932        H947   1.085       .  S
C933        C934   1.418       .  A
C933        C937   1.443       .  S
C934        C935   1.404       .  A
C935        C936   1.402       .  A
C935        H948   1.084       .  S
C936        C938   1.443       .  S
C937        N941   1.156       .  T
C938        N942   1.157       .  T
C939        N944   1.157       .  T
C940        N943   1.157       .  T
C949        C950   1.410       .  A
C949        C954   1.398       .  A
C949        C963   1.444       .  S
C950        C951   1.398       .  A
C950        C955   1.476       .  S
C951        C952   1.399       .  A
C951        H970   1.085       .  S
C952        C953   1.418       .  A
C952        C964   1.444       .  S
C953        C954   1.403       .  A
C954        H969   1.085       .  S
C955        C956   1.403       .  A
C955        C960   1.408       .  A
C956        C957   1.398       .  A
C956        H971   1.085       .  S
C957        C958   1.407       .  A
C957        C961   1.444       .  S
C958        C959   1.400       .  A
C959        C960   1.397       .  A
C959        H972   1.085       .  S
C960        C962   1.444       .  S
C961        N965   1.157       .  T
C962        N966   1.157       .  T
C963        N968   1.157       .  T
C964        N967   1.157       .  T
C973        C974   1.409       .  A
C973        C978   1.400       .  A
C973        C987   1.443       .  S
C974        C975   1.398   1_556  A
C974        C979   1.478       .  S
C975        C976   1.400       .  A
C975        H994   1.085       .  S
C976        C977   1.418   1_554  A
C976        C988   1.444       .  S
C977        C978   1.404       .  A
C978        H993   1.085       .  S
C979        C980   1.405       .  A
C979        C984   1.406   1_556  A
C980        C981   1.404       .  A
C980        H995   1.084       .  S
C981        C982   1.409       .  A
C981        C985   1.443       .  S
C982        C983   1.404   1_556  A
C983        C984   1.395       .  A
C983        H996   1.085       .  S
C984        C986   1.444       .  S
C985        N989   1.157       .  T
C986        N990   1.157       .  T
C987        N992   1.157       .  T
C988        N991   1.157       .  T
C997        C998   1.413       .  A
C997       C1002   1.403       .  A
C997       C1011   1.444       .  S
C998        C999   1.399   1_554  A
C998       C1003   1.483       .  S
C999       C1000   1.397       .  A
C999       H1018   1.085       .  S
C1000      C1001   1.411       .  A
C1000      C1012   1.440       .  S
C1001      C1002   1.403   1_556  A
C1002      H1017   1.085       .  S
C1003      C1004   1.400   1_554  A
C1003      C1008   1.412       .  A
C1004      C1005   1.397       .  A
C1004      H1019   1.085       .  S
C1005      C1006   1.412   1_556  A
C1005      C1009   1.445       .  S
C1006      C1007   1.403       .  A
C1007      C1008   1.405       .  A
C1007      H1020   1.085       .  S
C1008      C1010   1.444       .  S
C1009      N1013   1.157       .  T
C1010      N1014   1.157       .  T
C1011      N1016   1.157       .  T
C1012      N1015   1.156       .  T
C1021      C1022   1.410   1_556  A
C1021      C1026   1.399       .  A
C1021      C1035   1.444       .  S
C1022      C1023   1.406       .  A
C1022      C1027   1.489       .  S
C1023      C1024   1.405       .  A
C1023      H1042   1.085       .  S
C1024      C1025   1.411       .  A
C1024      C1036   1.442       .  S
C1025      C1026   1.404   1_554  A
C1026      H1041   1.085       .  S
C1027      C1028   1.403   1_554  A
C1027      C1032   1.413       .  A
C1028      C1029   1.401       .  A
C1028      H1043   1.085       .  S
C1029      C1030   1.412       .  A
C1029      C1033   1.443       .  S
C1030      C1031   1.403   1_556  A
C1031      C1032   1.403       .  A
C1031      H1044   1.085       .  S
C1032      C1034   1.444       .  S
C1033      N1037   1.157       .  T
C1034      N1038   1.157       .  T
C1035      N1040   1.157       .  T
C1036      N1039   1.157       .  T
C1045      C1046   1.404   1_554  A
C1045      C1050   1.396       .  A
C1045      C1059   1.444       .  S
C1046      C1047   1.403       .  A
C1046      C1051   1.477       .  S
C1047      C1048   1.402       .  A
C1047      H1066   1.085       .  S
C1048      C1049   1.416       .  A
C1048      C1060   1.445       .  S
C1049      C1050   1.409   1_556  A
C1050      H1065   1.085       .  S
C1051      C1052   1.401       .  A
C1051      C1056   1.407   1_556  A
C1052      C1053   1.401       .  A
C1052      H1067   1.085       .  S
C1053      C1054   1.411       .  A
C1053      C1057   1.442       .  S
C1054      C1055   1.404   1_556  A
C1055      C1056   1.398       .  A
C1055      H1068   1.085       .  S
C1056      C1058   1.444       .  S
C1057      N1061   1.157       .  T
C1058      N1062   1.157       .  T
C1059      N1064   1.157       .  T
C1060      N1063   1.158       .  T
C1069      C1070   1.409       .  A
C1069      C1074   1.406       .  A
C1069      C1083   1.444       .  S
C1070      C1071   1.402       .  A
C1070      C1075   1.494       .  S
C1071      C1072   1.406       .  A
C1071      H1090   1.085       .  S
C1072      C1073   1.425       .  A
C1072      C1084   1.445       .  S
C1073      C1074   1.413       .  A
C1074      H1089   1.084       .  S
C1075      C1076   1.403       .  A
C1075      C1080   1.415       .  A
C1076      C1077   1.401       .  A
C1076      H1091   1.085       .  S
C1077      C1078   1.410       .  A
C1077      C1081   1.442       .  S
C1078      C1079   1.403       .  A
C1079      C1080   1.405       .  A
C1079      H1092   1.084       .  S
C1080      C1082   1.443       .  S
C1081      N1085   1.157       .  T
C1082      N1086   1.157       .  T
C1083      N1088   1.157       .  T
C1084      N1087   1.158       .  T
C1093      C1094   1.408       .  A
C1093      C1098   1.399       .  A
C1093      C1107   1.444       .  S
C1094      C1095   1.402       .  A
C1094      C1099   1.487       .  S
C1095      C1096   1.405       .  A
C1095      H1114   1.085       .  S
C1096      C1097   1.421       .  A
C1096      C1108   1.444       .  S
C1097      C1098   1.409       .  A
C1098      H1113   1.084       .  S
C1099      C1100   1.402       .  A
C1099      C1104   1.410       .  A
C1100      C1101   1.403       .  A
C1100      H1115   1.085       .  S
C1101      C1102   1.414       .  A
C1101      C1105   1.442       .  S
C1102      C1103   1.404       .  A
C1103      C1104   1.402       .  A
C1103      H1116   1.084       .  S
C1104      C1106   1.443       .  S
C1105      N1109   1.157       .  T
C1106      N1110   1.157       .  T
C1107      N1112   1.157       .  T
C1108      N1111   1.158       .  T
C1117      C1118   1.411       .  A
C1117      C1122   1.406       .  A
C1117      C1131   1.444       .  S
C1118      C1119   1.403       .  A
C1118      C1123   1.496       .  S
C1119      C1120   1.408       .  A
C1119      H1138   1.085       .  S
C1120      C1121   1.421       .  A
C1120      C1132   1.445       .  S
C1121      C1122   1.408       .  A
C1122      H1137   1.084       .  S
C1123      C1124   1.404       .  A
C1123      C1128   1.414       .  A
C1124      C1125   1.402       .  A
C1124      H1139   1.084       .  S
C1125      C1126   1.409       .  A
C1125      C1129   1.442       .  S
C1126      C1127   1.403       .  A
C1127      C1128   1.409       .  A
C1127      H1140   1.084       .  S
C1128      C1130   1.443       .  S
C1129      N1133   1.157       .  T
C1130      N1134   1.157       .  T
C1131      N1136   1.157       .  T
C1132      N1135   1.158       .  T
C1141      C1142   1.408       .  A
C1141      C1146   1.402       .  A
C1141      C1155   1.444       .  S
C1142      C1143   1.401       .  A
C1142      C1147   1.487       .  S
C1143      C1144   1.405       .  A
C1143      H1162   1.085       .  S
C1144      C1145   1.419       .  A
C1144      C1156   1.443       .  S
C1145      C1146   1.409       .  A
C1146      H1161   1.085       .  S
C1147      C1148   1.402       .  A
C1147      C1152   1.411       .  A
C1148      C1149   1.400       .  A
C1148      H1163   1.085       .  S
C1149      C1150   1.409       .  A
C1149      C1153   1.442       .  S
C1150      C1151   1.404       .  A
C1151      C1152   1.405       .  A
C1151      H1164   1.084       .  S
C1152      C1154   1.443       .  S
C1153      N1157   1.157       .  T
C1154      N1158   1.157       .  T
C1155      N1160   1.157       .  T
C1156      N1159   1.157       .  T
C1165      C1166   1.414       .  A
C1165      C1170   1.401       .  A
C1165      C1179   1.444       .  S
C1166      C1167   1.400   1_565  A
C1166      C1171   1.488       .  S
C1167      C1168   1.398       .  A
C1167      H1186   1.085       .  S
C1168      C1169   1.417   1_545  A
C1168      C1180   1.445       .  S
C1169      C1170   1.404       .  A
C1170      H1185   1.085       .  S
C1171      C1172   1.404       .  A
C1171      C1176   1.413   1_565  A
C1172      C1173   1.400       .  A
C1172      H1187   1.085       .  S
C1173      C1174   1.408       .  A
C1173      C1177   1.443       .  S
C1174      C1175   1.402   1_565  A
C1175      C1176   1.401       .  A
C1175      H1188   1.085       .  S
C1176      C1178   1.444       .  S
C1177      N1181   1.157       .  T
C1178      N1182   1.157       .  T
C1179      N1184   1.157       .  T
C1180      N1183   1.157       .  T
C1189      C1190   1.411       .  A
C1189      C1194   1.398       .  A
C1189      C1203   1.444       .  S
C1190      C1191   1.404   1_565  A
C1190      C1195   1.484       .  S
C1191      C1192   1.401   1_545  A
C1191      H1210   1.085       .  S
C1192      C1193   1.410       .  A
C1192      C1204   1.444   1_565  S
C1193      C1194   1.401       .  A
C1194      H1209   1.085       .  S
C1195      C1196   1.403       .  A
C1195      C1200   1.406       .  A
C1196      C1197   1.401       .  A
C1196      H1211   1.085       .  S
C1197      C1198   1.418       .  A
C1197      C1201   1.444       .  S
C1198      C1199   1.411       .  A
C1199      C1200   1.398       .  A
C1199      H1212   1.084   1_565  S
C1200      C1202   1.444   1_565  S
C1201      N1205   1.157       .  T
C1202      N1206   1.157       .  T
C1203      N1208   1.157       .  T
C1204      N1207   1.157       .  T
C1213      C1214   1.414       .  A
C1213      C1218   1.401       .  A
C1213      C1227   1.444       .  S
C1214      C1215   1.403   1_565  A
C1214      C1219   1.485       .  S
C1215      C1216   1.401       .  A
C1215      H1234   1.085       .  S
C1216      C1217   1.411       .  A
C1216      C1228   1.444       .  S
C1217      C1218   1.401   1_545  A
C1218      H1233   1.085       .  S
C1219      C1220   1.400   1_565  A
C1219      C1224   1.414       .  A
C1220      C1221   1.396       .  A
C1220      H1235   1.085       .  S
C1221      C1222   1.411   1_545  A
C1221      C1225   1.444       .  S
C1222      C1223   1.402       .  A
C1223      C1224   1.403       .  A
C1223      H1236   1.085       .  S
C1224      C1226   1.444       .  S
C1225      N1229   1.157       .  T
C1226      N1230   1.157       .  T
C1227      N1232   1.157       .  T
C1228      N1231   1.157       .  T
C1237      C1238   1.407       .  A
C1237      C1242   1.398       .  A
C1237      C1251   1.445       .  S
C1238      C1239   1.404       .  A
C1238      C1243   1.486       .  S
C1239      C1240   1.401       .  A
C1239      H1258   1.085       .  S
C1240      C1241   1.418       .  A
C1240      C1252   1.444       .  S
C1241      C1242   1.411       .  A
C1242      H1257   1.084       .  S
C1243      C1244   1.404       .  A
C1243      C1248   1.414       .  A
C1244      C1245   1.397       .  A
C1244      H1259   1.085       .  S
C1245      C1246   1.410       .  A
C1245      C1249   1.445       .  S
C1246      C1247   1.401       .  A
C1247      C1248   1.399       .  A
C1247      H1260   1.084       .  S
C1248      C1250   1.443       .  S
C1249      N1253   1.157       .  T
C1250      N1254   1.157       .  T
C1251      N1256   1.157       .  T
C1252      N1255   1.157       .  T
C1261      C1262   1.414       .  A
C1261      C1266   1.400       .  A
C1261      C1275   1.444       .  S
C1262      C1263   1.405       .  A
C1262      C1267   1.490       .  S
C1263      C1264   1.402       .  A
C1263      H1282   1.085       .  S
C1264      C1265   1.409       .  A
C1264      C1276   1.444       .  S
C1265      C1266   1.401       .  A
C1266      H1281   1.085       .  S
C1267      C1268   1.403       .  A
C1267      C1272   1.414       .  A
C1268      C1269   1.401       .  A
C1268      H1283   1.085       .  S
C1269      C1270   1.417       .  A
C1269      C1273   1.445       .  S
C1270      C1271   1.403       .  A
C1271      C1272   1.401       .  A
C1271      H1284   1.083       .  S
C1272      C1274   1.444       .  S
C1273      N1277   1.157       .  T
C1274      N1278   1.157       .  T
C1275      N1280   1.157       .  T
C1276      N1279   1.157       .  T
C1285      C1286   1.413       .  A
C1285      C1290   1.402       .  A
C1285      C1299   1.444       .  S
C1286      C1287   1.402       .  A
C1286      C1291   1.487       .  S
C1287      C1288   1.401       .  A
C1287      H1306   1.085       .  S
C1288      C1289   1.414       .  A
C1288      C1300   1.443       .  S
C1289      C1290   1.401       .  A
C1290      H1305   1.084       .  S
C1291      C1292   1.406       .  A
C1291      C1296   1.411       .  A
C1292      C1293   1.403       .  A
C1292      H1307   1.085       .  S
C1293      C1294   1.409       .  A
C1293      C1297   1.443       .  S
C1294      C1295   1.402       .  A
C1295      C1296   1.398       .  A
C1295      H1308   1.085       .  S
C1296      C1298   1.444       .  S
C1297      N1301   1.157       .  T
C1298      N1302   1.157       .  T
C1299      N1304   1.157       .  T
C1300      N1303   1.157       .  T
C1309      C1310   1.411       .  A
C1309      C1314   1.404       .  A
C1309      C1323   1.444       .  S
C1310      C1311   1.396       .  A
C1310      C1315   1.486       .  S
C1311      C1312   1.400       .  A
C1311      H1330   1.085       .  S
C1312      C1313   1.427       .  A
C1312      C1324   1.445       .  S
C1313      C1314   1.410       .  A
C1314      H1329   1.084       .  S
C1315      C1316   1.404       .  A
C1315      C1320   1.410       .  A
C1316      C1317   1.402       .  A
C1316      H1331   1.085       .  S
C1317      C1318   1.410       .  A
C1317      C1321   1.443       .  S
C1318      C1319   1.404       .  A
C1319      C1320   1.400       .  A
C1319      H1332   1.085       .  S
C1320      C1322   1.444       .  S
C1321      N1325   1.157       .  T
C1322      N1326   1.157       .  T
C1323      N1328   1.157       .  T
C1324      N1327   1.157       .  T
C1333      C1334   1.411       .  A
C1333      C1338   1.403       .  A
C1333      C1347   1.444       .  S
C1334      C1335   1.404   1_565  A
C1334      C1339   1.488       .  S
C1335      C1336   1.405       .  A
C1335      H1354   1.084       .  S
C1336      C1337   1.409   1_545  A
C1336      C1348   1.441       .  S
C1337      C1338   1.404       .  A
C1338      H1353   1.084       .  S
C1339      C1340   1.400   1_565  A
C1339      C1344   1.408       .  A
C1340      C1341   1.404       .  A
C1340      H1355   1.085       .  S
C1341      C1342   1.419   1_545  A
C1341      C1345   1.441       .  S
C1342      C1343   1.411       .  A
C1343      C1344   1.404       .  A
C1343      H1356   1.084       .  S
C1344      C1346   1.444       .  S
C1345      N1349   1.156       .  T
C1346      N1350   1.157       .  T
C1347      N1352   1.157       .  T
C1348      N1351   1.157       .  T
C1357      C1358   1.414       .  A
C1357      C1362   1.402       .  A
C1357      C1371   1.444       .  S
C1358      C1359   1.405   1_565  A
C1358      C1363   1.500       .  S
C1359      C1360   1.405       .  A
C1359      H1378   1.085       .  S
C1360      C1361   1.420   1_545  A
C1360      C1372   1.444       .  S
C1361      C1362   1.407       .  A
C1362      H1377   1.084       .  S
C1363      C1364   1.406       .  A
C1363      C1368   1.417   1_565  A
C1364      C1365   1.400       .  A
C1364      H1379   1.084       .  S
C1365      C1366   1.408       .  A
C1365      C1369   1.442       .  S
C1366      C1367   1.402   1_565  A
C1367      C1368   1.406       .  A
C1367      H1380   1.084       .  S
C1368      C1370   1.443       .  S
C1369      N1373   1.157       .  T
C1370      N1374   1.157       .  T
C1371      N1376   1.157       .  T
C1372      N1375   1.157       .  T
C1381      C1382   1.409       .  A
C1381      C1386   1.399       .  A
C1381      C1395   1.444       .  S
C1382      C1383   1.403   1_565  A
C1382      C1387   1.482       .  S
C1383      C1384   1.403       .  A
C1383      H1402   1.085       .  S
C1384      C1385   1.409   1_545  A
C1384      C1396   1.441       .  S
C1385      C1386   1.403       .  A
C1386      H1401   1.084       .  S
C1387      C1388   1.401   1_565  A
C1387      C1392   1.407       .  A
C1388      C1389   1.403       .  A
C1388      H1403   1.085       .  S
C1389      C1390   1.422   1_545  A
C1389      C1393   1.446       .  S
C1390      C1391   1.407       .  A
C1391      C1392   1.398       .  A
C1391      H1404   1.085       .  S
C1392      C1394   1.443       .  S
C1393      N1397   1.158       .  T
C1394      N1398   1.157       .  T
C1395      N1400   1.157       .  T
C1396      N1399   1.157       .  T
C1405      C1406   1.412   1_545  A
C1405      C1410   1.404       .  A
C1405      C1419   1.443       .  S
C1406      C1407   1.400       .  A
C1406      C1411   1.484       .  S
C1407      C1408   1.399       .  A
C1407      H1426   1.085       .  S
C1408      C1409   1.411       .  A
C1408      C1420   1.444       .  S
C1409      C1410   1.402   1_565  A
C1410      H1425   1.085       .  S
C1411      C1412   1.403       .  A
C1411      C1416   1.404       .  A
C1412      C1413   1.404       .  A
C1412      H1427   1.085   1_565  S
C1413      C1414   1.419       .  A
C1413      C1417   1.444   1_565  S
C1414      C1415   1.413       .  A
C1415      C1416   1.399       .  A
C1415      H1428   1.084       .  S
C1416      C1418   1.444       .  S
C1417      N1421   1.158       .  T
C1418      N1422   1.157       .  T
C1419      N1424   1.157       .  T
C1420      N1423   1.157       .  T
C1429      C1430   1.411   1_545  A
C1429      C1434   1.404       .  A
C1429      C1443   1.444       .  S
C1430      C1431   1.404       .  A
C1430      C1435   1.493       .  S
C1431      C1432   1.405       .  A
C1431      H1450   1.085       .  S
C1432      C1433   1.416       .  A
C1432      C1444   1.445       .  S
C1433      C1434   1.406   1_565  A
C1434      H1449   1.085       .  S
C1435      C1436   1.403   1_565  A
C1435      C1440   1.412       .  A
C1436      C1437   1.403       .  A
C1436      H1451   1.085       .  S
C1437      C1438   1.413       .  A
C1437      C1441   1.442       .  S
C1438      C1439   1.405   1_545  A
C1439      C1440   1.406       .  A
C1439      H1452   1.084       .  S
C1440      C1442   1.443       .  S
C1441      N1445   1.157       .  T
C1442      N1446   1.157       .  T
C1443      N1448   1.157       .  T
C1444      N1447   1.157       .  T
C1453      C1454   1.408       .  A
C1453      C1458   1.397       .  A
C1453      C1467   1.444       .  S
C1454      C1455   1.401       .  A
C1454      C1459   1.479       .  S
C1455      C1456   1.400       .  A
C1455      H1474   1.085       .  S
C1456      C1457   1.413       .  A
C1456      C1468   1.443       .  S
C1457      C1458   1.405       .  A
C1458      H1473   1.085       .  S
C1459      C1460   1.403       .  A
C1459      C1464   1.406       .  A
C1460      C1461   1.401       .  A
C1460      H1475   1.085       .  S
C1461      C1462   1.411       .  A
C1461      C1465   1.444       .  S
C1462      C1463   1.408       .  A
C1463      C1464   1.397       .  A
C1463      H1476   1.085       .  S
C1464      C1466   1.445       .  S
C1465      N1469   1.157       .  T
C1466      N1470   1.157       .  T
C1467      N1472   1.157       .  T
C1468      N1471   1.157       .  T
C1477      C1478   1.410       .  A
C1477      C1482   1.400       .  A
C1477      C1491   1.443       .  S
C1478      C1479   1.401       .  A
C1478      C1483   1.479       .  S
C1479      C1480   1.399       .  A
C1479      H1498   1.085       .  S
C1480      C1481   1.410       .  A
C1480      C1492   1.444       .  S
C1481      C1482   1.401       .  A
C1482      H1497   1.085       .  S
C1483      C1484   1.402       .  A
C1483      C1488   1.402       .  A
C1484      C1485   1.403       .  A
C1484      H1499   1.085       .  S
C1485      C1486   1.418       .  A
C1485      C1489   1.443       .  S
C1486      C1487   1.413       .  A
C1487      C1488   1.399       .  A
C1487      H1500   1.084       .  S
C1488      C1490   1.444       .  S
C1489      N1493   1.157       .  T
C1490      N1494   1.157       .  T
C1491      N1496   1.157       .  T
C1492      N1495   1.157       .  T
C1501      C1502   1.411       .  A
C1501      C1506   1.398       .  A
C1501      C1515   1.444       .  S
C1502      C1503   1.406       .  A
C1502      C1507   1.490       .  S
C1503      C1504   1.402       .  A
C1503      H1522   1.084       .  S
C1504      C1505   1.410       .  A
C1504      C1516   1.443       .  S
C1505      C1506   1.402       .  A
C1506      H1521   1.085       .  S
C1507      C1508   1.405       .  A
C1507      C1512   1.408       .  A
C1508      C1509   1.402       .  A
C1508      H1523   1.085       .  S
C1509      C1510   1.417       .  A
C1509      C1513   1.445       .  S
C1510      C1511   1.411       .  A
C1511      C1512   1.399       .  A
C1511      H1524   1.084       .  S
C1512      C1514   1.444       .  S
C1513      N1517   1.158       .  T
C1514      N1518   1.157       .  T
C1515      N1520   1.157       .  T
C1516      N1519   1.157       .  T
C1525      C1526   1.408       .  A
C1525      C1530   1.400       .  A
C1525      C1539   1.444       .  S
C1526      C1527   1.402       .  A
C1526      C1531   1.479       .  S
C1527      C1528   1.401       .  A
C1527      H1546   1.085       .  S
C1528      C1529   1.409       .  A
C1528      C1540   1.443       .  S
C1529      C1530   1.403       .  A
C1530      H1545   1.085       .  S
C1531      C1532   1.402       .  A
C1531      C1536   1.403       .  A
C1532      C1533   1.402       .  A
C1532      H1547   1.085       .  S
C1533      C1534   1.416       .  A
C1533      C1537   1.444       .  S
C1534      C1535   1.412       .  A
C1535      C1536   1.398       .  A
C1535      H1548   1.085       .  S
C1536      C1538   1.444       .  S
C1537      N1541   1.157       .  T
C1538      N1542   1.157       .  T
C1539      N1544   1.157       .  T
C1540      N1543   1.157       .  T
C1549      C1550   1.411       .  A
C1549      C1554   1.404       .  A
C1549      C1563   1.444       .  S
C1550      C1551   1.400   1_565  A
C1550      C1555   1.480       .  S
C1551      C1552   1.396       .  A
C1551      H1570   1.085       .  S
C1552      C1553   1.409   1_545  A
C1552      C1564   1.444       .  S
C1553      C1554   1.402       .  A
C1554      H1569   1.084       .  S
C1555      C1556   1.398   1_565  A
C1555      C1560   1.413       .  A
C1556      C1557   1.397       .  A
C1556      H1571   1.085       .  S
C1557      C1558   1.415   1_545  A
C1557      C1561   1.444       .  S
C1558      C1559   1.402       .  A
C1559      C1560   1.401       .  A
C1559      H1572   1.085       .  S
C1560      C1562   1.444       .  S
C1561      N1565   1.157       .  T
C1562      N1566   1.157       .  T
C1563      N1568   1.157       .  T
C1564      N1567   1.157       .  T
C1573      C1574   1.410       .  A
C1573      C1578   1.402       .  A
C1573      C1587   1.443   1_565  S
C1574      C1575   1.395       .  A
C1574      C1579   1.477       .  S
C1575      C1576   1.396       .  A
C1575      H1594   1.085       .  S
C1576      C1577   1.421       .  A
C1576      C1588   1.443       .  S
C1577      C1578   1.405       .  A
C1578      H1593   1.084   1_565  S
C1579      C1580   1.400       .  A
C1579      C1584   1.409   1_565  A
C1580      C1581   1.398       .  A
C1580      H1595   1.085       .  S
C1581      C1582   1.410       .  A
C1581      C1585   1.444       .  S
C1582      C1583   1.403   1_565  A
C1583      C1584   1.400       .  A
C1583      H1596   1.085       .  S
C1584      C1586   1.444       .  S
C1585      N1589   1.157       .  T
C1586      N1590   1.157       .  T
C1587      N1592   1.157       .  T
C1588      N1591   1.156       .  T
C1597      C1598   1.411       .  A
C1597      C1602   1.402       .  A
C1597      C1611   1.444       .  S
C1598      C1599   1.399   1_565  A
C1598      C1603   1.486       .  S
C1599      C1600   1.402       .  A
C1599      H1618   1.085       .  S
C1600      C1601   1.422   1_545  A
C1600      C1612   1.445       .  S
C1601      C1602   1.404       .  A
C1602      H1617   1.081       .  S
C1603      C1604   1.400   1_565  A
C1603      C1608   1.413       .  A
C1604      C1605   1.398       .  A
C1604      H1619   1.085       .  S
C1605      C1606   1.415   1_545  A
C1605      C1609   1.445       .  S
C1606      C1607   1.403       .  A
C1607      C1608   1.405       .  A
C1607      H1620   1.084       .  S
C1608      C1610   1.443       .  S
C1609      N1613   1.157       .  T
C1610      N1614   1.157       .  T
C1611      N1616   1.157       .  T
C1612      N1615   1.157       .  T
C1621      C1622   1.409   1_565  A
C1621      C1626   1.402       .  A
C1621      C1635   1.443       .  S
C1622      C1623   1.399       .  A
C1622      C1627   1.478       .  S
C1623      C1624   1.396       .  A
C1623      H1642   1.085       .  S
C1624      C1625   1.412       .  A
C1624      C1636   1.444       .  S
C1625      C1626   1.404   1_545  A
C1626      H1641   1.085       .  S
C1627      C1628   1.403   1_545  A
C1627      C1632   1.406       .  A
C1628      C1629   1.401       .  A
C1628      H1643   1.085       .  S
C1629      C1630   1.414   1_565  A
C1629      C1633   1.444       .  S
C1630      C1631   1.408       .  A
C1631      C1632   1.397       .  A
C1631      H1644   1.085       .  S
C1632      C1634   1.444       .  S
C1633      N1637   1.157       .  T
C1634      N1638   1.157       .  T
C1635      N1640   1.157       .  T
C1636      N1639   1.157       .  T
C1645      C1646   1.410       .  A
C1645      C1650   1.406       .  A
C1645      C1659   1.444       .  S
C1646      C1647   1.401       .  A
C1646      C1651   1.490       .  S
C1647      C1648   1.404       .  A
C1647      H1666   1.085       .  S
C1648      C1649   1.419       .  A
C1648      C1660   1.444       .  S
C1649      C1650   1.409       .  A
C1650      H1665   1.084       .  S
C1651      C1652   1.403       .  A
C1651      C1656   1.411       .  A
C1652      C1653   1.403       .  A
C1652      H1667   1.085       .  S
C1653      C1654   1.412       .  A
C1653      C1657   1.443       .  S
C1654      C1655   1.405       .  A
C1655      C1656   1.405       .  A
C1655      H1668   1.084       .  S
C1656      C1658   1.443       .  S
C1657      N1661   1.157       .  T
C1658      N1662   1.157       .  T
C1659      N1664   1.157       .  T
C1660      N1663   1.157       .  T
C1669      C1670   1.414       .  A
C1669      C1674   1.411       .  A
C1669      C1683   1.444       .  S
C1670      C1671   1.402       .  A
C1670      C1675   1.505       .  S
C1671      C1672   1.407       .  A
C1671      H1690   1.085       .  S
C1672      C1673   1.426       .  A
C1672      C1684   1.444       .  S
C1673      C1674   1.413       .  A
C1674      H1689   1.084       .  S
C1675      C1676   1.408       .  A
C1675      C1680   1.415       .  A
C1676      C1677   1.409       .  A
C1676      H1691   1.084       .  S
C1677      C1678   1.412       .  A
C1677      C1681   1.442       .  S
C1678      C1679   1.405       .  A
C1679      C1680   1.406       .  A
C1679      H1692   1.084       .  S
C1680      C1682   1.443       .  S
C1681      N1685   1.157       .  T
C1682      N1686   1.157       .  T
C1683      N1688   1.157       .  T
C1684      N1687   1.157       .  T
C1693      C1694   1.408       .  A
C1693      C1698   1.403       .  A
C1693      C1707   1.444       .  S
C1694      C1695   1.401       .  A
C1694      C1699   1.488       .  S
C1695      C1696   1.405       .  A
C1695      H1714   1.085       .  S
C1696      C1697   1.420       .  A
C1696      C1708   1.444       .  S
C1697      C1698   1.408       .  A
C1698      H1713   1.084       .  S
C1699      C1700   1.403       .  A
C1699      C1704   1.411       .  A
C1700      C1701   1.403       .  A
C1700      H1715   1.085       .  S
C1701      C1702   1.411       .  A
C1701      C1705   1.442       .  S
C1702      C1703   1.402       .  A
C1703      C1704   1.402       .  A
C1703      H1716   1.083       .  S
C1704      C1706   1.443       .  S
C1705      N1709   1.157       .  T
C1706      N1710   1.157       .  T
C1707      N1712   1.157       .  T
C1708      N1711   1.157       .  T
C1717      C1718   1.409       .  A
C1717      C1722   1.404       .  A
C1717      C1731   1.443       .  S
C1718      C1719   1.403       .  A
C1718      C1723   1.490       .  S
C1719      C1720   1.405       .  A
C1719      H1738   1.085       .  S
C1720      C1721   1.417       .  A
C1720      C1732   1.444       .  S
C1721      C1722   1.409       .  A
C1722      H1737   1.085       .  S
C1723      C1724   1.402       .  A
C1723      C1728   1.412       .  A
C1724      C1725   1.402       .  A
C1724      H1739   1.085       .  S
C1725      C1726   1.412       .  A
C1725      C1729   1.441       .  S
C1726      C1727   1.404       .  A
C1727      C1728   1.406       .  A
C1727      H1740   1.084       .  S
C1728      C1730   1.443       .  S
C1729      N1733   1.157       .  T
C1730      N1734   1.157       .  T
C1731      N1736   1.157       .  T
C1732      N1735   1.157       .  T
C1741      C1742   1.409   1_655  A
C1741      C1746   1.403       .  A
C1741      C1755   1.443       .  S
C1742      C1743   1.399       .  A
C1742      C1747   1.480       .  S
C1743      C1744   1.398       .  A
C1743      H1762   1.085       .  S
C1744      C1745   1.413       .  A
C1744      C1756   1.444       .  S
C1745      C1746   1.404   1_455  A
C1746      H1761   1.084       .  S
C1747      C1748   1.403   1_455  A
C1747      C1752   1.404       .  A
C1748      C1749   1.403       .  A
C1748      H1763   1.085       .  S
C1749      C1750   1.415   1_655  A
C1749      C1753   1.444       .  S
C1750      C1751   1.410       .  A
C1751      C1752   1.398       .  A
C1751      H1764   1.085       .  S
C1752      C1754   1.444       .  S
C1753      N1757   1.158       .  T
C1754      N1758   1.157       .  T
C1755      N1760   1.157       .  T
C1756      N1759   1.157       .  T
C1765      C1766   1.410   1_455  A
C1765      C1770   1.403       .  A
C1765      C1779   1.444       .  S
C1766      C1767   1.398       .  A
C1766      C1771   1.476       .  S
C1767      C1768   1.396       .  A
C1767      H1786   1.085       .  S
C1768      C1769   1.411       .  A
C1768      C1780   1.444       .  S
C1769      C1770   1.403   1_655  A
C1770      H1785   1.084       .  S
C1771      C1772   1.402   1_655  A
C1771      C1776   1.403       .  A
C1772      C1773   1.401       .  A
C1772      H1787   1.085       .  S
C1773      C1774   1.414   1_455  A
C1773      C1777   1.442       .  S
C1774      C1775   1.412       .  A
C1775      C1776   1.396       .  A
C1775      H1788   1.082       .  S
C1776      C1778   1.444       .  S
C1777      N1781   1.157       .  T
C1778      N1782   1.157       .  T
C1779      N1784   1.157       .  T
C1780      N1783   1.157       .  T
C1789      C1790   1.412       .  A
C1789      C1794   1.399       .  A
C1789      C1803   1.445       .  S
C1790      C1791   1.403   1_655  A
C1790      C1795   1.483       .  S
C1791      C1792   1.398       .  A
C1791      H1810   1.085       .  S
C1792      C1793   1.409   1_455  A
C1792      C1804   1.444       .  S
C1793      C1794   1.402       .  A
C1794      H1809   1.085       .  S
C1795      C1796   1.403       .  A
C1795      C1800   1.407   1_655  A
C1796      C1797   1.399       .  A
C1796      H1811   1.085       .  S
C1797      C1798   1.415       .  A
C1797      C1801   1.443       .  S
C1798      C1799   1.410   1_655  A
C1799      C1800   1.397       .  A
C1799      H1812   1.085       .  S
C1800      C1802   1.444       .  S
C1801      N1805   1.157       .  T
C1802      N1806   1.157       .  T
C1803      N1808   1.157       .  T
C1804      N1807   1.157       .  T
C1813      C1814   1.410       .  A
C1813      C1818   1.402       .  A
C1813      C1827   1.443       .  S
C1814      C1815   1.398   1_655  A
C1814      C1819   1.475       .  S
C1815      C1816   1.394       .  A
C1815      H1834   1.085       .  S
C1816      C1817   1.412   1_455  A
C1816      C1828   1.445       .  S
C1817      C1818   1.402       .  A
C1818      H1833   1.085       .  S
C1819      C1820   1.395   1_655  A
C1819      C1824   1.409       .  A
C1820      C1821   1.397       .  A
C1820      H1835   1.085       .  S
C1821      C1822   1.421       .  A
C1821      C1825   1.445       .  S
C1822      C1823   1.405   1_455  A
C1823      C1824   1.401       .  A
C1823      H1836   1.084       .  S
C1824      C1826   1.444       .  S
C1825      N1829   1.157       .  T
C1826      N1830   1.157       .  T
C1827      N1832   1.157       .  T
C1828      N1831   1.157       .  T
C1837      C1838   1.407       .  A
C1837      C1842   1.399       .  A
C1837      C1851   1.444       .  S
C1838      C1839   1.400       .  A
C1838      C1843   1.476       .  S
C1839      C1840   1.399       .  A
C1839      H1858   1.085   1_455  S
C1840      C1841   1.412       .  A
C1840      C1852   1.443   1_455  S
C1841      C1842   1.404       .  A
C1842      H1857   1.085       .  S
C1843      C1844   1.401       .  A
C1843      C1848   1.402       .  A
C1844      C1845   1.402       .  A
C1844      H1859   1.085       .  S
C1845      C1846   1.419       .  A
C1845      C1849   1.444       .  S
C1846      C1847   1.414       .  A
C1847      C1848   1.395       .  A
C1847      H1860   1.084       .  S
C1848      C1850   1.445       .  S
C1849      N1853   1.158       .  T
C1850      N1854   1.157       .  T
C1851      N1856   1.157       .  T
C1852      N1855   1.157       .  T
C1861      C1862   1.413       .  A
C1861      C1866   1.402       .  A
C1861      C1875   1.443       .  S
C1862      C1863   1.402   1_455  A
C1862      C1867   1.483       .  S
C1863      C1864   1.396       .  A
C1863      H1882   1.085       .  S
C1864      C1865   1.409   1_655  A
C1864      C1876   1.445       .  S
C1865      C1866   1.400       .  A
C1866      H1881   1.085       .  S
C1867      C1868   1.402   1_455  A
C1867      C1872   1.413       .  A
C1868      C1869   1.399       .  A
C1868      H1883   1.085       .  S
C1869      C1870   1.411   1_655  A
C1869      C1873   1.443       .  S
C1870      C1871   1.403       .  A
C1871      C1872   1.401       .  A
C1871      H1884   1.085       .  S
C1872      C1874   1.445       .  S
C1873      N1877   1.157       .  T
C1874      N1878   1.157       .  T
C1875      N1880   1.157       .  T
C1876      N1879   1.157       .  T
C1885      C1886   1.414       .  A
C1885      C1890   1.404       .  A
C1885      C1899   1.443       .  S
C1886      C1887   1.399       .  A
C1886      C1891   1.483       .  S
C1887      C1888   1.395       .  A
C1887      H1906   1.085       .  S
C1888      C1889   1.411       .  A
C1888      C1900   1.444       .  S
C1889      C1890   1.402       .  A
C1890      H1905   1.085       .  S
C1891      C1892   1.403       .  A
C1891      C1896   1.413       .  A
C1892      C1893   1.400       .  A
C1892      H1907   1.085       .  S
C1893      C1894   1.411       .  A
C1893      C1897   1.444       .  S
C1894      C1895   1.401       .  A
C1895      C1896   1.401       .  A
C1895      H1908   1.085       .  S
C1896      C1898   1.444       .  S
C1897      N1901   1.157       .  T
C1898      N1902   1.157       .  T
C1899      N1904   1.157       .  T
C1900      N1903   1.157       .  T
C1909      C1910   1.406       .  A
C1909      C1914   1.397       .  A
C1909      C1923   1.444       .  S
C1910      C1911   1.405       .  A
C1910      C1915   1.485       .  S
C1911      C1912   1.403       .  A
C1911      H1930   1.085       .  S
C1912      C1913   1.416       .  A
C1912      C1924   1.444       .  S
C1913      C1914   1.411       .  A
C1914      H1929   1.085       .  S
C1915      C1916   1.403       .  A
C1915      C1920   1.412       .  A
C1916      C1917   1.400       .  A
C1916      H1931   1.085       .  S
C1917      C1918   1.409       .  A
C1917      C1921   1.444       .  S
C1918      C1919   1.402       .  A
C1919      C1920   1.401       .  A
C1919      H1932   1.084       .  S
C1920      C1922   1.444       .  S
C1921      N1925   1.157       .  T
C1922      N1926   1.157       .  T
C1923      N1928   1.157       .  T
C1924      N1927   1.158       .  T
C1933      C1934   1.408       .  A
C1933      C1938   1.400       .  A
C1933      C1947   1.443       .  S
C1934      C1935   1.397       .  A
C1934      C1939   1.478       .  S
C1935      C1936   1.398       .  A
C1935      H1954   1.085       .  S
C1936      C1937   1.421       .  A
C1936      C1948   1.445       .  S
C1937      C1938   1.406       .  A
C1938      H1953   1.084       .  S
C1939      C1940   1.399       .  A
C1939      C1944   1.409       .  A
C1940      C1941   1.397       .  A
C1940      H1955   1.085       .  S
C1941      C1942   1.412       .  A
C1941      C1945   1.444       .  S
C1942      C1943   1.404       .  A
C1943      C1944   1.402       .  A
C1943      H1956   1.085       .  S
C1944      C1946   1.444       .  S
C1945      N1949   1.157       .  T
C1946      N1950   1.157       .  T
C1947      N1952   1.157       .  T
C1948      N1951   1.157       .  T
C1957      C1958   1.405       .  A
C1957      C1962   1.399       .  A
C1957      C1971   1.444       .  S
C1958      C1959   1.401       .  A
C1958      C1963   1.481       .  S
C1959      C1960   1.401       .  A
C1959      H1978   1.085       .  S
C1960      C1961   1.420       .  A
C1960      C1972   1.445       .  S
C1961      C1962   1.411       .  A
C1962      H1977   1.084       .  S
C1963      C1964   1.400       .  A
C1963      C1968   1.412       .  A
C1964      C1965   1.396       .  A
C1964      H1979   1.085       .  S
C1965      C1966   1.413       .  A
C1965      C1969   1.445       .  S
C1966      C1967   1.401       .  A
C1967      C1968   1.401       .  A
C1967      H1980   1.085       .  S
C1968      C1970   1.443       .  S
C1969      N1973   1.157       .  T
C1970      N1974   1.157       .  T
C1971      N1976   1.157       .  T
C1972      N1975   1.158       .  T
C1981      C1982   1.411       .  A
C1981      C1986   1.404       .  A
C1981      C1995   1.443       .  S
C1982      C1983   1.400       .  A
C1982      C1987   1.483       .  S
C1983      C1984   1.399       .  A
C1983      H2002   1.085       .  S
C1984      C1985   1.413       .  A
C1984      C1996   1.445       .  S
C1985      C1986   1.402       .  A
C1986      H2001   1.085       .  S
C1987      C1988   1.398       .  A
C1987      C1992   1.410       .  A
C1988      C1989   1.400       .  A
C1988      H2003   1.085       .  S
C1989      C1990   1.420       .  A
C1989      C1993   1.444       .  S
C1990      C1991   1.407       .  A
C1991      C1992   1.403       .  A
C1991      H2004   1.084       .  S
C1992      C1994   1.444       .  S
C1993      N1997   1.157       .  T
C1994      N1998   1.157       .  T
C1995      N2000   1.157       .  T
C1996      N1999   1.157       .  T
C2005      C2006   1.404       .  A
C2005      C2010   1.399       .  A
C2005      C2019   1.444       .  S
C2006      C2007   1.403       .  A
C2006      C2011   1.484       .  S
C2007      C2008   1.403       .  A
C2007      H2026   1.085       .  S
C2008      C2009   1.420       .  A
C2008      C2020   1.444       .  S
C2009      C2010   1.415       .  A
C2010      H2025   1.084       .  S
C2011      C2012   1.404       .  A
C2011      C2016   1.409       .  A
C2012      C2013   1.404       .  A
C2012      H2027   1.085       .  S
C2013      C2014   1.413       .  A
C2013      C2017   1.444       .  S
C2014      C2015   1.401       .  A
C2015      C2016   1.396       .  A
C2015      H2028   1.085       .  S
C2016      C2018   1.443       .  S
C2017      N2021   1.157       .  T
C2018      N2022   1.157       .  T
C2019      N2024   1.157       .  T
C2020      N2023   1.157       .  T
C2029      C2030   1.407       .  A
C2029      C2034   1.400       .  A
C2029      C2043   1.444       .  S
C2030      C2031   1.405       .  A
C2030      C2035   1.485       .  S
C2031      C2032   1.405       .  A
C2031      H2050   1.085       .  S
C2032      C2033   1.413       .  A
C2032      C2044   1.444       .  S
C2033      C2034   1.409       .  A
C2034      H2049   1.085       .  S
C2035      C2036   1.403       .  A
C2035      C2040   1.408       .  A
C2036      C2037   1.405       .  A
C2036      H2051   1.085       .  S
C2037      C2038   1.412       .  A
C2037      C2041   1.442       .  S
C2038      C2039   1.406       .  A
C2039      C2040   1.399       .  A
C2039      H2052   1.085       .  S
C2040      C2042   1.444       .  S
C2041      N2045   1.157       .  T
C2042      N2046   1.157       .  T
C2043      N2048   1.157       .  T
C2044      N2047   1.157       .  T
C2053      C2054   1.412       .  A
C2053      C2058   1.402       .  A
C2053      C2067   1.444       .  S
C2054      C2055   1.398       .  A
C2054      C2059   1.481       .  S
C2055      C2056   1.398       .  A
C2055      H2074   1.085       .  S
C2056      C2057   1.417       .  A
C2056      C2068   1.443       .  S
C2057      C2058   1.403       .  A
C2058      H2073   1.084       .  S
C2059      C2060   1.401       .  A
C2059      C2064   1.411       .  A
C2060      C2061   1.398       .  A
C2060      H2075   1.085       .  S
C2061      C2062   1.410       .  A
C2061      C2065   1.445       .  S
C2062      C2063   1.401       .  A
C2063      C2064   1.401       .  A
C2063      H2076   1.085       .  S
C2064      C2066   1.443       .  S
C2065      N2069   1.157       .  T
C2066      N2070   1.157       .  T
C2067      N2072   1.157       .  T
C2068      N2071   1.156       .  T
C2077      C2078   1.415   1_655  A
C2077      C2082   1.404       .  A
C2077      C2091   1.444       .  S
C2078      C2079   1.406       .  A
C2078      C2083   1.496       .  S
C2079      C2080   1.403       .  A
C2079      H2098   1.084       .  S
C2080      C2081   1.407       .  A
C2080      C2092   1.442       .  S
C2081      C2082   1.401   1_455  A
C2082      H2097   1.084       .  S
C2083      C2084   1.403       .  A
C2083      C2088   1.412   1_455  A
C2084      C2085   1.404       .  A
C2084      H2099   1.085       .  S
C2085      C2086   1.419       .  A
C2085      C2089   1.444       .  S
C2086      C2087   1.410   1_455  A
C2087      C2088   1.404       .  A
C2087      H2100   1.084       .  S
C2088      C2090   1.445       .  S
C2089      N2093   1.157       .  T
C2090      N2094   1.157       .  T
C2091      N2096   1.157       .  T
C2092      N2095   1.157       .  T
C2101      C2102   1.409       .  A
C2101      C2106   1.403       .  A
C2101      C2115   1.444       .  S
C2102      C2103   1.403   1_655  A
C2102      C2107   1.488       .  S
C2103      C2104   1.404       .  A
C2103      H2122   1.085       .  S
C2104      C2105   1.415   1_455  A
C2104      C2116   1.443       .  S
C2105      C2106   1.410       .  A
C2106      H2121   1.085       .  S
C2107      C2108   1.402   1_655  A
C2107      C2112   1.410       .  A
C2108      C2109   1.405       .  A
C2108      H2123   1.085       .  S
C2109      C2110   1.415   1_455  A
C2109      C2113   1.440       .  S
C2110      C2111   1.405       .  A
C2111      C2112   1.402       .  A
C2111      H2124   1.084       .  S
C2112      C2114   1.443       .  S
C2113      N2117   1.157       .  T
C2114      N2118   1.157       .  T
C2115      N2120   1.157       .  T
C2116      N2119   1.157       .  T
C2125      C2126   1.411       .  A
C2125      C2130   1.405       .  A
C2125      C2139   1.444       .  S
C2126      C2127   1.404       .  A
C2126      C2131   1.500       .  S
C2127      C2128   1.407   1_455  A
C2127      H2146   1.085   1_455  S
C2128      C2129   1.422   1_655  A
C2128      C2140   1.445       .  S
C2129      C2130   1.411       .  A
C2130      H2145   1.084       .  S
C2131      C2132   1.405       .  A
C2131      C2136   1.414   1_455  A
C2132      C2133   1.403       .  A
C2132      H2147   1.085       .  S
C2133      C2134   1.411       .  A
C2133      C2137   1.442       .  S
C2134      C2135   1.405   1_455  A
C2135      C2136   1.407       .  A
C2135      H2148   1.084       .  S
C2136      C2138   1.443       .  S
C2137      N2141   1.157       .  T
C2138      N2142   1.157       .  T
C2139      N2144   1.157       .  T
C2140      N2143   1.158       .  T
C2149      C2150   1.414   1_655  A
C2149      C2154   1.403       .  A
C2149      C2163   1.443       .  S
C2150      C2151   1.404       .  A
C2150      C2155   1.490       .  S
C2151      C2152   1.400       .  A
C2151      H2170   1.085       .  S
C2152      C2153   1.410       .  A
C2152      C2164   1.445       .  S
C2153      C2154   1.401   1_455  A
C2154      H2169   1.084       .  S
C2155      C2156   1.397   1_455  A
C2155      C2160   1.412       .  A
C2156      C2157   1.399       .  A
C2156      H2171   1.085       .  S
C2157      C2158   1.425       .  A
C2157      C2161   1.444       .  S
C2158      C2159   1.408   1_655  A
C2159      C2160   1.406       .  A
C2159      H2172   1.084       .  S
C2160      C2162   1.444       .  S
C2161      N2165   1.157       .  T
C2162      N2166   1.157       .  T
C2163      N2168   1.157       .  T
C2164      N2167   1.157       .  T
C2173      C2174   1.410   1_655  A
C2173      C2178   1.403       .  A
C2173      C2187   1.443       .  S
C2174      C2175   1.401       .  A
C2174      C2179   1.482       .  S
C2175      C2176   1.398       .  A
C2175      H2194   1.085       .  S
C2176      C2177   1.412       .  A
C2176      C2188   1.445       .  S
C2177      C2178   1.403   1_455  A
C2178      H2193   1.084       .  S
C2179      C2180   1.404   1_455  A
C2179      C2184   1.405       .  A
C2180      C2181   1.405       .  A
C2180      H2195   1.085       .  S
C2181      C2182   1.415   1_655  A
C2181      C2185   1.443       .  S
C2182      C2183   1.412       .  A
C2183      C2184   1.398       .  A
C2183      H2196   1.085       .  S
C2184      C2186   1.444       .  S
C2185      N2189   1.157       .  T
C2186      N2190   1.157       .  T
C2187      N2192   1.157       .  T
C2188      N2191   1.157       .  T
C2197      C2198   1.409   1_655  A
C2197      C2202   1.401       .  A
C2197      C2211   1.443       .  S
C2198      C2199   1.399       .  A
C2198      C2203   1.485       .  S
C2199      C2200   1.401       .  A
C2199      H2218   1.085       .  S
C2200      C2201   1.424   1_455  A
C2200      C2212   1.446       .  S
C2201      C2202   1.407       .  A
C2202      H2217   1.084       .  S
C2203      C2204   1.402       .  A
C2203      C2208   1.411   1_455  A
C2204      C2205   1.399       .  A
C2204      H2219   1.085       .  S
C2205      C2206   1.408       .  A
C2205      C2209   1.442       .  S
C2206      C2207   1.403   1_455  A
C2207      C2208   1.404       .  A
C2207      H2220   1.084       .  S
C2208      C2210   1.443       .  S
C2209      N2213   1.157       .  T
C2210      N2214   1.157       .  T
C2211      N2216   1.157       .  T
C2212      N2215   1.158       .  T
