geometry optimzed in LAMMPS
_audit_creation_date              2020-11-30 
_audit_creation_method            'lammps2cif' 
_symmetry_space_group_name_H-M    'P1' 
_symmetry_Int_Tables_number       1 
_symmetry_cell_setting            triclinic 
loop_ 
_symmetry_equiv_pos_as_xyz 
  x,y,z 
_cell_length_a                    27.9438962 
_cell_length_b                    27.90142860155408 
_cell_length_c                    38.05656831518406 
_cell_angle_alpha                 88.6503875636517 
_cell_angle_beta                  89.77567868898622 
_cell_angle_gamma                 88.84982466501424 
loop_ 
_atom_site_label 
_atom_site_type_symbol 
_atom_site_fract_x 
_atom_site_fract_y 
_atom_site_fract_z 
_atom_site_charge 
C1          C  0.98888500  0.64433356  0.96761342     0.83000
N2          N  0.97618846  0.59811601  0.97337075    -0.75300
C3          C  0.97191169  0.57994088  0.00660915     0.85400
N4          N  0.97882285  0.60881180  0.03412492    -0.75300
C5          C  0.99106708  0.65528823  0.02877204     0.85500
N6          N  0.99695605  0.67294180  0.99541218    -0.77000
C7          C  0.65386760  0.03279760  0.03084941     0.83000
N8          N  0.60557220  0.03464678  0.03473899    -0.75300
C9          C  0.57660869  0.04071324  0.00650767     0.85400
N10         N  0.59623167  0.04499059  0.97388748    -0.75300
C11         C  0.64451042  0.04250885  0.96951246     0.85500
N12         N  0.67347160  0.03677557  0.99812054    -0.77000
C13         C  0.87046670  0.47307179  0.47183486     0.83000
N14         N  0.91874514  0.47264814  0.47620037    -0.73700
C15         C  0.93780502  0.47930724  0.50851918     0.85400
N16         N  0.90834699  0.48589588  0.53639897    -0.75300
C17         C  0.86012957  0.48582560  0.53241015     0.85500
N18         N  0.84115946  0.47934215  0.50008798    -0.77000
C19         C  0.49643736  0.86662213  0.52685076     0.83000
N20         N  0.49870383  0.91518283  0.52341111    -0.75300
C21         C  0.49681725  0.93675002  0.49095151     0.85400
N22         N  0.49321576  0.90946834  0.46212741    -0.75300
C23         C  0.49141370  0.86100768  0.46539873     0.85500
N24         N  0.49292743  0.83967378  0.49777778    -0.77000
C25         C  0.51808868  0.14586385  0.53491006     0.83000
N26         N  0.52564740  0.16647424  0.50273098    -0.75300
C27         C  0.52240289  0.13995272  0.47334706     0.85400
N28         N  0.51337526  0.09226151  0.47640258    -0.75300
C29         C  0.50751839  0.07118515  0.50872231     0.85500
N30         N  0.50926060  0.09829468  0.53772101    -0.77000
C31         C  0.15120029  0.49268278  0.46975889     0.83000
N32         N  0.17011093  0.48868570  0.50267686    -0.75300
C33         C  0.14068380  0.48259473  0.53104385     0.85400
N34         N  0.09269934  0.47960536  0.52619230    -0.75300
C35         C  0.07371418  0.48386132  0.49341768     0.85500
N36         N  0.10310192  0.49038882  0.46543601    -0.77000
C37         C  0.72567648  0.05912717  0.83079047     0.83000
N38         N  0.71250888  0.05882402  0.86518023    -0.75300
C39         C  0.71364245  0.01716110  0.88450079     0.85400
N40         N  0.72779654  0.97572238  0.86906291    -0.75300
C41         C  0.74034902  0.97584626  0.83451233     0.85500
N42         N  0.73930672  0.01758552  0.81544043    -0.77000
O43         O  0.76079596  0.31253744  0.69986460    -0.71700
O44         O  0.74904673  0.18941531  0.74597899    -0.71700
O45         O  0.69395883  0.24325103  0.70095492    -0.71700
O46         O  0.81576114  0.25843916  0.74453895    -0.71800
O47         O  0.77976971  0.29324954  0.79011831    -0.71700
O48         O  0.65780551  0.27803408  0.74647015    -0.71700
O49         O  0.71298419  0.22431965  0.79146844    -0.71700
O50         O  0.72471561  0.34723723  0.74543275    -0.71700
Ni51       Ni  0.75611574  0.24967369  0.72116258     1.25400
Ni52       Ni  0.71746878  0.28696453  0.76997916     1.25400
C53         C  0.74507904  0.35002346  0.71530481     0.90500
C54         C  0.72947221  0.18687998  0.77643553     0.90500
C55         C  0.65603437  0.25802115  0.71659823     0.90500
C56         C  0.81761859  0.27819224  0.77446768     0.90700
O57         O  0.74851976  0.81108376  0.80066413    -0.71700
O58         O  0.75903239  0.69088038  0.75421240    -0.71700
O59         O  0.81525550  0.73918028  0.79857005    -0.71700
O60         O  0.69245479  0.76289041  0.75596982    -0.71800
O61         O  0.72804986  0.79922312  0.71026327    -0.71700
O62         O  0.85059333  0.77558270  0.75277477    -0.71700
O63         O  0.79449005  0.72710065  0.70840019    -0.71700
O64         O  0.78391744  0.84764177  0.75497629    -0.71700
Ni65       Ni  0.75256380  0.74973480  0.77900408     1.25400
Ni66       Ni  0.79054082  0.78871114  0.72996882     1.25400
C67         C  0.76431378  0.84899475  0.78543779     0.90500
C68         C  0.77845689  0.68931623  0.72375256     0.90500
C69         C  0.85295300  0.75342314  0.78254696     0.90500
C70         C  0.69028541  0.78478297  0.72604061     0.90700
C71         C  0.06629182  0.72949732  0.82979263     0.83000
N72         N  0.02409685  0.73626840  0.81261748    -0.75300
C73         C  0.98214680  0.72929706  0.82988458     0.85400
N74         N  0.98243410  0.71509211  0.86418074    -0.75300
C75         C  0.02449133  0.70845201  0.88161374     0.85500
N76         N  0.06648745  0.71595901  0.86436661    -0.77000
O77         O  0.26165948  0.83239190  0.74528180    -0.71700
O78         O  0.24485387  0.71281348  0.69932638    -0.71700
O79         O  0.19320642  0.76501659  0.74617929    -0.71700
O80         O  0.31365750  0.78046048  0.69872016    -0.71800
O81         O  0.35078857  0.74170931  0.74314419    -0.71700
O82         O  0.23062020  0.72628732  0.79048439    -0.71700
O83         O  0.28210128  0.67403801  0.74365911    -0.71700
O84         O  0.29891706  0.79373033  0.78967854    -0.71700
Ni85       Ni  0.25203440  0.77399634  0.72073599     1.25400
Ni86       Ni  0.29195963  0.73250291  0.76827750     1.25400
C87         C  0.28270512  0.83256074  0.77509564     0.90500
C88         C  0.26052814  0.67385343  0.71401866     0.90500
C89         C  0.19238970  0.74356348  0.77629739     0.90500
C90         C  0.35193901  0.76399837  0.71340127     0.90700
C91         C  0.94315223  0.29509223  0.82596049     0.83000
N92         N  0.93978615  0.31722453  0.85714762    -0.75300
C93         C  0.97942456  0.32409738  0.87663582     0.85400
N94         N  0.02309764  0.31008776  0.86423493    -0.75300
C95         C  0.02665114  0.28861725  0.83256640     0.85500
N96         N  0.98663570  0.28114992  0.81345249    -0.77000
O97         O  0.24738226  0.33237692  0.75479772    -0.71700
O98         O  0.26251097  0.20871534  0.80052156    -0.71700
O99         O  0.31546608  0.26170354  0.75484626    -0.71700
O100        O  0.19435449  0.27925196  0.80085686    -0.71800
O101        O  0.15780582  0.24536787  0.75594596    -0.71700
O102        O  0.27904030  0.22781999  0.70987226    -0.71700
O103        O  0.22605296  0.17486734  0.75556173    -0.71700
O104        O  0.21091973  0.29843332  0.70989860    -0.71700
Ni105      Ni  0.25617069  0.27175760  0.77937464     1.25400
Ni106      Ni  0.21708832  0.23545117  0.73121692     1.25400
C107        C  0.22708913  0.33553298  0.72467603     0.90500
C108        C  0.24702011  0.17158142  0.78538993     0.90500
C109        C  0.31703994  0.24178357  0.72491451     0.90500
C110        C  0.15636518  0.26491290  0.78604748     0.90700
C111        C  0.27832351  0.04129229  0.83143785     0.83000
N112        N  0.29916048  0.04061254  0.86360477    -0.75300
C113        C  0.31752472  0.99897190  0.87762880     0.85400
N114        N  0.31525630  0.95800257  0.85916252    -0.75300
C115        C  0.29364537  0.95832064  0.82725662     0.85500
N116        N  0.27556993  0.00010209  0.81324823    -0.77000
C117        C  0.23375948  0.54706324  0.66640839     0.83000
N118        N  0.23332504  0.50537822  0.68561973    -0.75300
C119        C  0.22037626  0.46399214  0.67044210     0.85400
N120        N  0.20736301  0.46447591  0.63605174    -0.75300
C121        C  0.20796397  0.50604832  0.61659872     0.85500
N122        N  0.22143996  0.54721333  0.63188681    -0.77000
C123        C  0.52828837  0.23029086  0.67114657     0.83000
N124        N  0.52860761  0.20851444  0.63962806    -0.75300
C125        C  0.48710383  0.19304719  0.62575507     0.85400
N126        N  0.44539609  0.19925441  0.64363230    -0.75300
C127        C  0.44489462  0.22173083  0.67484589     0.85500
N128        N  0.48642145  0.23693276  0.68876186    -0.77000
C129        C  0.56365170  0.80562034  0.67430166     0.83000
N130        N  0.52162401  0.78964674  0.68774057    -0.75300
C131        C  0.48080100  0.79468446  0.66864331     0.85400
N132        N  0.48210226  0.81548707  0.63608854    -0.75300
C133        C  0.52401231  0.83178360  0.62260008     0.85500
N134        N  0.56469782  0.82712976  0.64191574    -0.77000
C135        C  0.78922404  0.56203487  0.67315190     0.83000
N136        N  0.81128019  0.56137156  0.64133226    -0.75300
C137        C  0.81437053  0.52012211  0.62317816     0.85400
N138        N  0.79642580  0.47913174  0.63741250    -0.75300
C139        C  0.77515522  0.47940485  0.66951250     0.85500
N140        N  0.77152942  0.52090560  0.68742946    -0.77000
C141        C  0.37329275  0.04367500  0.02883089     0.83000
N142        N  0.42140883  0.04569752  0.02395056    -0.75300
C143        C  0.44067770  0.04045580  0.99134759     0.85400
N144        N  0.41146312  0.03366816  0.96362757    -0.75300
C145        C  0.36328336  0.03228337  0.96813943     0.85500
N146        N  0.34420620  0.03738236  0.00077329    -0.77000
C147        C  0.98344455  0.36837412  0.97084755     0.83000
N148        N  0.98261134  0.34888290  0.00396148    -0.75300
C149        C  0.97248325  0.37724716  0.03182997     0.85400
N150        N  0.96445343  0.42505435  0.02650682    -0.75300
C151        C  0.96664502  0.44475192  0.99358117     0.85500
N152        N  0.97568323  0.41622804  0.96600927    -0.77000
C153        C  0.94076682  0.73226325  0.17371073     0.83000
N154        N  0.93573600  0.71250206  0.14177898    -0.75300
C155        C  0.97423781  0.70637782  0.12039064     0.85400
N156        N  0.01829591  0.71904373  0.13150709    -0.75300
C157        C  0.02348103  0.73825070  0.16371733     0.85500
N158        N  0.98472944  0.74474975  0.18483432    -0.77000
O159        O  0.24594004  0.68530524  0.23666535    -0.71700
O160        O  0.26020361  0.80936698  0.19237820    -0.71700
O161        O  0.31355744  0.75363569  0.23709449    -0.71700
O162        O  0.19245498  0.74121394  0.19166748    -0.71800
O163        O  0.15589881  0.77537104  0.23727426    -0.71700
O164        O  0.27684244  0.78774222  0.28266397    -0.71700
O165        O  0.22360132  0.84345101  0.23798115    -0.71700
O166        O  0.20931802  0.71953558  0.28218859    -0.71700
Ni167      Ni  0.25430630  0.74612212  0.21279402     1.25400
Ni168      Ni  0.21506050  0.78270136  0.26164974     1.25400
C169        C  0.22563847  0.68224039  0.26684604     0.90500
C170        C  0.24446218  0.84665455  0.20804434     0.90500
C171        C  0.31490632  0.77286372  0.26725304     0.90500
C172        C  0.15447395  0.75652582  0.20698369     0.90700
O173        O  0.76185809  0.70557726  0.30496799    -0.71700
O174        O  0.74393910  0.82981968  0.26114606    -0.71700
O175        O  0.69101878  0.77338208  0.30479451    -0.71700
O176        O  0.81462142  0.76208560  0.26108178    -0.71800
O177        O  0.78104035  0.72829916  0.21486808    -0.71700
O178        O  0.65788325  0.73962249  0.25839151    -0.71700
O179        O  0.71063743  0.79609086  0.21480929    -0.71700
O180        O  0.72850848  0.67178531  0.25867938    -0.71700
Ni181      Ni  0.75404861  0.76888888  0.28470327     1.25400
Ni182      Ni  0.71832811  0.73271217  0.23505761     1.25400
C183        C  0.74796044  0.66843494  0.28906300     0.90500
C184        C  0.72475066  0.83319179  0.23068482     0.90500
C185        C  0.65430369  0.75841593  0.28862823     0.90500
C186        C  0.81781029  0.74376096  0.23060893     0.90700
C187        C  0.72431338  0.04510736  0.17239660     0.83000
N188        N  0.70753617  0.04461851  0.13892420    -0.75300
C189        C  0.69363217  0.00274408  0.12488891     0.85400
N190        N  0.69604510  0.96160913  0.14461455    -0.75300
C191        C  0.71361453  0.96179072  0.17777183     0.85500
N192        N  0.72735827  0.00363532  0.19179341    -0.77000
O193        O  0.72986425  0.21101427  0.20644533    -0.71700
O194        O  0.74359842  0.32935207  0.25467075    -0.71700
O195        O  0.79661045  0.28042634  0.20704327    -0.71700
O196        O  0.67666902  0.26020436  0.25400289    -0.71800
O197        O  0.71469991  0.22092196  0.29775625    -0.71700
O198        O  0.83485884  0.24118466  0.25071682    -0.71700
O199        O  0.78172190  0.28999305  0.29835514    -0.71700
O200        O  0.76800520  0.17180096  0.25018119    -0.71700
Ni201      Ni  0.73531928  0.27162740  0.22897161     1.25400
Ni202      Ni  0.77618050  0.22954632  0.27581004     1.25400
C203        C  0.74670735  0.17207204  0.22045444     0.90500
C204        C  0.76497275  0.32895948  0.28438794     0.90500
C205        C  0.83533123  0.26433083  0.22124902     0.90500
C206        C  0.67605896  0.23738771  0.28357492     0.90700
C207        C  0.28010267  0.06029176  0.16427582     0.83000
N208        N  0.29694561  0.06104566  0.13070683    -0.75300
C209        C  0.29981725  0.01981672  0.11234193     0.85400
N210        N  0.28603198  0.97793471  0.12779511    -0.75300
C211        C  0.27005781  0.97692398  0.16150798     0.85500
N212        N  0.26694862  0.01815108  0.17971822    -0.77000
C213        C  0.96176962  0.28947328  0.17023563     0.83000
N214        N  0.96102094  0.30301169  0.13570874    -0.75300
C215        C  0.00271661  0.31034675  0.11797653     0.85400
N216        N  0.04509402  0.30443090  0.13504554    -0.75300
C217        C  0.04593888  0.29187309  0.16971944     0.85500
N218        N  0.00425744  0.28419476  0.18727148    -0.77000
O219        O  0.24473089  0.18515170  0.24770997    -0.71700
O220        O  0.22958116  0.30368822  0.29645963    -0.71700
O221        O  0.17632791  0.25525967  0.24983939    -0.71700
O222        O  0.29790872  0.23295792  0.29435952    -0.71800
O223        O  0.33416754  0.27165743  0.25001999    -0.71700
O224        O  0.21229919  0.29401881  0.20539335    -0.71700
O225        O  0.26570938  0.34229302  0.25202650    -0.71700
O226        O  0.28082986  0.22400033  0.20336123    -0.71700
Ni227      Ni  0.23584693  0.24295540  0.27371136     1.25400
Ni228      Ni  0.27453476  0.28445937  0.22614659     1.25400
C229        C  0.26525375  0.18527688  0.21755104     0.90500
C230        C  0.24516256  0.34239603  0.28215053     0.90500
C231        C  0.17449026  0.27771092  0.22015003     0.90500
C232        C  0.33593804  0.24815433  0.27932696     0.90700
C233        C  0.54693372  0.21368379  0.33117802     0.83000
N234        N  0.54477089  0.19109316  0.36315838    -0.75300
C235        C  0.50167540  0.17966938  0.37747967     0.85400
N236        N  0.46080888  0.19107226  0.35966664    -0.75300
C237        C  0.46277189  0.21452070  0.32803985     0.85500
N238        N  0.50588742  0.22554412  0.31370117    -0.77000
C239        C  0.21407314  0.55535528  0.32171507     0.83000
N240        N  0.19578347  0.55784098  0.35472237    -0.75300
C241        C  0.19209995  0.51758130  0.37522787     0.85400
N242        N  0.20535107  0.47434162  0.36209941    -0.75300
C243        C  0.22277869  0.47154389  0.32878835     0.85500
N244        N  0.22715053  0.51211878  0.30863321    -0.77000
C245        C  0.77042521  0.53817966  0.33794679     0.83000
N246        N  0.78453998  0.53718218  0.37203184    -0.75300
C247        C  0.79669053  0.49491782  0.38838188     0.85400
N248        N  0.79403998  0.45335566  0.37055514    -0.75300
C249        C  0.77894484  0.45417229  0.33662658     0.85500
N250        N  0.76747712  0.49663901  0.32028384    -0.77000
C251        C  0.52158107  0.78252995  0.32940869     0.83000
N252        N  0.51706851  0.80455340  0.36065994    -0.75300
C253        C  0.47340529  0.82020377  0.37183252     0.85400
N254        N  0.43432340  0.81397610  0.35157843    -0.75300
C255        C  0.43862115  0.79105280  0.32066631     0.85500
N256        N  0.48231629  0.77568760  0.30937642    -0.77000
C257        C  0.41909467  0.22765800  0.30990095    -0.10500
C258        C  0.38157764  0.23789242  0.29559910    -0.12100
C259        C  0.23903390  0.38713210  0.30000966    -0.10500
C260        C  0.23278002  0.42538445  0.31381584    -0.12100
C261        C  0.12905431  0.28383057  0.20274940    -0.10500
C262        C  0.09097544  0.28752685  0.18788796    -0.12100
C263        C  0.27548840  0.10416247  0.18330611    -0.10500
C264        C  0.27090204  0.14103645  0.19912318    -0.12100
C265        C  0.91759553  0.28041649  0.18865108    -0.10500
C266        C  0.88027541  0.27273991  0.20373666    -0.12100
C267        C  0.77028593  0.37318480  0.30254670    -0.10500
C268        C  0.77462159  0.41011003  0.31807378    -0.12100
C269        C  0.63092064  0.22997758  0.30110346    -0.10500
C270        C  0.59269634  0.22324999  0.31518447    -0.12100
C271        C  0.73484556  0.08999164  0.18833685    -0.10500
C272        C  0.74111879  0.12757633  0.20262775    -0.12100
C273        C  0.71979585  0.87952159  0.21359032    -0.10500
C274        C  0.71678861  0.91767323  0.19802991    -0.12100
C275        C  0.60783465  0.76364157  0.30434346    -0.10500
C276        C  0.56832845  0.77036646  0.31627773    -0.12100
C277        C  0.75437111  0.62198872  0.30575570    -0.10500
C278        C  0.76070200  0.58342033  0.32023509    -0.12100
C279        C  0.25099862  0.89317490  0.19186698    -0.10500
C280        C  0.25841694  0.93184413  0.17822433    -0.12100
C281        C  0.39680170  0.78351463  0.30000338    -0.10500
C282        C  0.36005642  0.77807238  0.28429378    -0.12100
C283        C  0.22161089  0.63610075  0.28427322    -0.10500
C284        C  0.21837177  0.59853401  0.30051248    -0.12100
C285        C  0.07034829  0.74719566  0.17697472    -0.10500
C286        C  0.10912388  0.75215966  0.18998715    -0.12100
C287        C  0.89971915  0.73778047  0.19615208    -0.10500
C288        C  0.86336327  0.74092638  0.21317883    -0.12100
C289        C  0.00251497  0.32553875  0.08056998    -0.13700
C290        C  0.96969427  0.35705357  0.06788621    -0.28800
H291        H  0.03233849  0.31441986  0.06405220     0.15400
H292        H  0.94302225  0.37221626  0.08550907     0.15900
C293        C  0.35328804  0.04754600  0.06462143    -0.13700
C294        C  0.31725195  0.01983522  0.07570075    -0.28800
H295        H  0.37119741  0.07019032  0.08310733     0.15400
H296        H  0.30286490  0.99352116  0.05818733     0.15900
C297        C  0.34435038  0.99906441  0.91086088    -0.13700
C298        C  0.33197288  0.02772182  0.93739449    -0.28800
H299        H  0.37550668  0.97530797  0.91342644     0.15400
H300        H  0.29868181  0.04849040  0.93632858     0.15900
C301        C  0.26327565  0.08636659  0.81547143    -0.10500
C302        C  0.25429425  0.12508847  0.80192201    -0.12100
C303        C  0.22317754  0.38154200  0.70666992    -0.10500
C304        C  0.22124431  0.41947036  0.69056869    -0.12100
C305        C  0.40040685  0.22897209  0.69317065    -0.10500
C306        C  0.36248021  0.23489960  0.70783805    -0.12100
C307        C  0.99185664  0.33818155  0.93995097    -0.13700
C308        C  0.97468183  0.35251774  0.90842029    -0.28800
H309        H  0.00995726  0.30354948  0.94319707     0.15400
H310        H  0.95266365  0.38499534  0.90617020     0.15900
C311        C  0.11109269  0.27117796  0.80355465    -0.10500
C312        C  0.07286477  0.27786726  0.81766784    -0.12100
C313        C  0.28759142  0.87725180  0.79280578    -0.10500
C314        C  0.29061297  0.91450113  0.80816849    -0.12100
C315        C  0.39738586  0.77175042  0.69662504    -0.10500
C316        C  0.43572579  0.78066490  0.68357992    -0.12100
C317        C  0.24532815  0.59139532  0.68295129    -0.10500
C318        C  0.25314984  0.62889142  0.69703426    -0.12100
C319        C  0.11065839  0.73517583  0.81099390    -0.10500
C320        C  0.14772754  0.73910829  0.79486497    -0.12100
C321        C  0.93731630  0.73732321  0.81214624    -0.10500
C322        C  0.89894717  0.74447371  0.79836206    -0.12100
C323        C  0.78528685  0.60626886  0.69173679    -0.10500
C324        C  0.78224379  0.64410421  0.70644791    -0.12100
C325        C  0.60720300  0.79910472  0.69403663    -0.10500
C326        C  0.64461084  0.79286944  0.70942024    -0.12100
C327        C  0.90059446  0.28804963  0.80598625    -0.10500
C328        C  0.86316023  0.28336083  0.79098579    -0.12100
C329        C  0.75162473  0.39637273  0.69888800    -0.10500
C330        C  0.76029171  0.43492677  0.68554059    -0.12100
C331        C  0.61046609  0.25125775  0.70042684    -0.10500
C332        C  0.57262652  0.24322871  0.68689117    -0.12100
C333        C  0.72669632  0.14118422  0.79453071    -0.10500
C334        C  0.72560831  0.10348835  0.81074154    -0.12100
C335        C  0.75904122  0.89408022  0.80282029    -0.10500
C336        C  0.75198313  0.93147525  0.81756070    -0.12100
C337        C  0.15981433  0.47802725  0.56714681    -0.13700
C338        C  0.19345461  0.50716836  0.57917891    -0.28800
H339        H  0.14212853  0.45353221  0.58535892     0.15400
H340        H  0.20757189  0.53510485  0.56192519     0.15900
C341        C  0.18227022  0.49602245  0.43833837    -0.13700
C342        C  0.16732606  0.52031369  0.40936538    -0.28800
H343        H  0.21655601  0.47696293  0.43842832     0.15400
H344        H  0.13493226  0.54245656  0.41045040     0.15900
C345        C  0.51852050  0.17489150  0.56669655    -0.13700
C346        C  0.48723684  0.16643571  0.59287302    -0.28800
H347        H  0.54320929  0.20437722  0.56811364     0.15400
H348        H  0.45978324  0.13981669  0.58969600     0.15900
C349        C  0.49873455  0.15396730  0.41174353    -0.13700
C350        C  0.52815101  0.16331301  0.43843955    -0.28800
H351        H  0.46946157  0.12938921  0.41599999     0.15400
H352        H  0.55414956  0.19159121  0.43546314     0.15900
C353        C  0.50003681  0.98925899  0.48615154    -0.13700
C354        C  0.50111206  0.01900924  0.51328681    -0.28800
H355        H  0.50219662  0.00367383  0.45940950     0.15400
H356        H  0.49849298  0.00459033  0.54000371     0.15900
C357        C  0.49598284  0.84290183  0.56180059    -0.13700
C358        C  0.52519522  0.85579161  0.58767260    -0.28800
H359        H  0.47282668  0.81239188  0.56576362     0.15400
H360        H  0.55165699  0.88317704  0.58267388     0.15900
C361        C  0.49122953  0.83162252  0.43389920    -0.13700
C362        C  0.46892569  0.84679337  0.40448251    -0.28800
H363        H  0.50992443  0.79708083  0.43476479     0.15400
H364        H  0.44665357  0.87916835  0.40443513     0.15900
C365        C  0.98999856  0.47998639  0.51411432    -0.13700
C366        C  0.02165057  0.48117146  0.48752856    -0.28800
H367        H  0.00256505  0.48112573  0.54107083     0.15400
H368        H  0.00907126  0.48143893  0.46053433     0.15900
C369        C  0.82891506  0.49091822  0.56339700    -0.13700
C370        C  0.84117660  0.51909076  0.58988359    -0.28800
H371        H  0.79585259  0.47108892  0.56467378     0.15400
H372        H  0.87204066  0.54200594  0.58713463     0.15900
C373        C  0.85050153  0.46798356  0.43631509    -0.13700
C374        C  0.81297681  0.49495678  0.42518581    -0.28800
H375        H  0.86985337  0.44557084  0.41786351     0.15400
H376        H  0.79707728  0.52132454  0.44251955     0.15900
C377        C  0.52430112  0.04218707  0.01204974    -0.13700
C378        C  0.49292386  0.04153091  0.98546228    -0.28800
H379        H  0.51135726  0.04217669  0.03902437     0.15400
H380        H  0.50584566  0.04021292  0.95851732     0.15900
C381        C  0.66446289  0.04670028  0.93364480    -0.13700
C382        C  0.69841853  0.01629330  0.92179680    -0.28800
H383        H  0.64706371  0.07193345  0.91540299     0.15400
H384        H  0.71222247  0.98772575  0.93904848     0.15900
C385        C  0.68417608  0.02855424  0.06248906    -0.13700
C386        C  0.66964588  0.00252600  0.09055173    -0.28800
H387        H  0.71761722  0.04770637  0.06317971     0.15400
H388        H  0.63831755  0.98029114  0.08843607     0.15900
C389        C  0.96373768  0.52846370  0.01333131    -0.13700
C390        C  0.96352146  0.49699797  0.98721963    -0.28800
H391        H  0.96241095  0.51571324  0.04053377     0.15400
H392        H  0.96583337  0.50980832  0.96006756     0.15900
C393        C  0.99019582  0.66321929  0.93119701    -0.13700
C394        C  0.02443534  0.69225102  0.91886135    -0.28800
H395        H  0.96368455  0.64994217  0.91320829     0.15400
H396        H  0.05386579  0.70189052  0.93570204     0.15900
C397        C  0.99704194  0.68606354  0.05933899    -0.13700
C398        C  0.96825308  0.68068475  0.08744554    -0.28800
H399        H  0.02434495  0.71325032  0.05870956     0.15400
H400        H  0.93853965  0.65618914  0.08628952     0.15900
loop_ 
_geom_bond_atom_site_label_1 
_geom_bond_atom_site_label_2 
_geom_bond_distance 
_geom_bond_site_symmetry_2 
_ccdc_geom_bond_type 
C1            N2   1.357       .  A
C1            N6   1.362       .  A
C1          C393   1.472       .  S
N2            C3   1.357   1_556  A
C3            N4   1.353       .  A
C3          C389   1.475       .  S
N4            C5   1.358       .  A
C5            N6   1.361   1_554  A
C5          C397   1.474       .  S
C7            N8   1.357       .  A
C7           N12   1.362   1_554  A
C7          C385   1.476       .  S
N8            C9   1.353       .  A
C9           N10   1.359   1_554  A
C9          C377   1.476       .  S
N10          C11   1.359       .  A
C11          N12   1.364       .  A
C11         C381   1.475       .  S
C13          N14   1.360       .  A
C13          N18   1.361       .  A
C13         C373   1.475       .  S
N14          C15   1.360       .  A
C15          N16   1.354       .  A
C15         C365   1.475       .  S
N16          C17   1.357       .  A
C17          N18   1.359       .  A
C17         C369   1.472       .  S
C19          N20   1.361       .  A
C19          N24   1.357       .  A
C19         C357   1.472       .  S
N20          C21   1.362       .  A
C21          N22   1.355       .  A
C21         C353   1.477       .  S
N22          C23   1.357       .  A
C23          N24   1.356       .  A
C23         C361   1.468       .  S
C25          N26   1.358       .  A
C25          N30   1.357       .  A
C25         C345   1.472       .  S
N26          C27   1.360       .  A
C27          N28   1.362       .  A
C27         C350   1.476       .  S
N28          C29   1.361       .  A
C29          N30   1.354       .  A
C29         C354   1.476       .  S
C31          N32   1.363       .  A
C31          N36   1.358       .  A
C31         C341   1.477       .  S
N32          C33   1.364       .  A
C33          N34   1.359       .  A
C33         C337   1.478       .  S
N34          C35   1.359       .  A
C35          N36   1.353       .  A
C35         C366   1.477       .  S
C37          N38   1.358       .  A
C37          N42   1.357       .  A
C37         C334   1.439       .  S
N38          C39   1.361       .  A
C39          N40   1.360   1_545  A
C39         C382   1.480       .  S
N40          C41   1.359       .  A
C41          N42   1.358   1_565  A
C41         C336   1.440       .  S
O43         Ni51   1.921       .  S
O43          C53   1.281       .  A
O44         Ni51   1.922       .  S
O44          C54   1.281       .  A
O45         Ni51   1.916       .  S
O45          C55   1.279       .  A
O46         Ni51   1.915       .  S
O46          C56   1.279       .  A
O47         Ni52   1.918       .  S
O47          C56   1.280       .  A
O48         Ni52   1.919       .  S
O48          C55   1.280       .  A
O49         Ni52   1.918       .  S
O49          C54   1.280       .  A
O50         Ni52   1.918       .  S
O50          C53   1.279       .  A
Ni51        Ni52   2.394       .  S
C53         C329   1.438       .  S
C54         C333   1.438       .  S
C55         C331   1.434       .  S
C56         C328   1.433       .  S
O57         Ni65   1.918       .  S
O57          C67   1.280       .  A
O58         Ni65   1.918       .  S
O58          C68   1.279       .  A
O59         Ni65   1.921       .  S
O59          C69   1.281       .  A
O60         Ni65   1.923       .  S
O60          C70   1.281       .  A
O61         Ni66   1.918       .  S
O61          C70   1.280       .  A
O62         Ni66   1.917       .  S
O62          C69   1.279       .  A
O63         Ni66   1.923       .  S
O63          C68   1.281       .  A
O64         Ni66   1.924       .  S
O64          C67   1.281       .  A
Ni65        Ni66   2.393       .  S
C67         C335   1.440       .  S
C68         C324   1.439       .  S
C69         C322   1.436       .  S
C70         C326   1.438       .  S
C71          N72   1.358       .  A
C71          N76   1.360       .  A
C71         C319   1.439       .  S
N72          C73   1.357   1_455  A
C73          N74   1.355       .  A
C73         C321   1.436       .  S
N74          C75   1.359   1_655  A
C75          N76   1.360       .  A
C75         C394   1.478       .  S
O77         Ni85   1.921       .  S
O77          C87   1.280       .  A
O78         Ni85   1.923       .  S
O78          C88   1.281       .  A
O79         Ni85   1.922       .  S
O79          C89   1.281       .  A
O80         Ni85   1.922       .  S
O80          C90   1.281       .  A
O81         Ni86   1.917       .  S
O81          C90   1.279       .  A
O82         Ni86   1.917       .  S
O82          C89   1.279       .  A
O83         Ni86   1.925       .  S
O83          C88   1.281       .  A
O84         Ni86   1.923       .  S
O84          C87   1.281       .  A
Ni85        Ni86   2.392       .  S
C87         C313   1.440       .  S
C88         C318   1.444       .  S
C89         C320   1.438       .  S
C90         C315   1.437       .  S
C91          N92   1.353       .  A
C91          N96   1.356       .  A
C91         C327   1.433       .  S
N92          C93   1.355       .  A
C93          N94   1.360   1_655  A
C93         C308   1.466       .  S
N94          C95   1.361       .  A
C95          N96   1.359   1_455  A
C95         C312   1.437       .  S
O97        Ni105   1.925       .  S
O97         C107   1.281       .  A
O98        Ni105   1.922       .  S
O98         C108   1.281       .  A
O99        Ni105   1.918       .  S
O99         C109   1.279       .  A
O100       Ni105   1.918       .  S
O100        C110   1.279       .  A
O101       Ni106   1.920       .  S
O101        C110   1.280       .  A
O102       Ni106   1.920       .  S
O102        C109   1.280       .  A
O103       Ni106   1.921       .  S
O103        C108   1.280       .  A
O104       Ni106   1.923       .  S
O104        C107   1.281       .  A
Ni105      Ni106   2.393       .  S
C107        C303   1.443       .  S
C108        C302   1.439       .  S
C109        C306   1.436       .  S
C110        C311   1.437       .  S
C111        N112   1.357       .  A
C111        N116   1.359       .  A
C111        C301   1.440       .  S
N112        C113   1.359   1_545  A
C113        N114   1.359       .  A
C113        C297   1.473       .  S
N114        C115   1.358       .  A
C115        N116   1.359   1_565  A
C115        C314   1.441       .  S
C117        N118   1.359       .  A
C117        N122   1.359       .  A
C117        C317   1.444       .  S
N118        C119   1.359       .  A
C119        N120   1.359       .  A
C119        C304   1.444       .  S
N120        C121   1.362       .  A
C121        N122   1.360       .  A
C121        C338   1.482       .  S
C123        N124   1.357       .  A
C123        N128   1.358       .  A
C123        C332   1.435       .  S
N124        C125   1.359       .  A
C125        N126   1.357       .  A
C125        C346   1.470       .  S
N126        C127   1.356       .  A
C127        N128   1.357       .  A
C127        C305   1.436       .  S
C129        N130   1.358       .  A
C129        N134   1.359       .  A
C129        C325   1.439       .  S
N130        C131   1.358       .  A
C131        N132   1.356       .  A
C131        C316   1.437       .  S
N132        C133   1.359       .  A
C133        N134   1.359       .  A
C133        C358   1.475       .  S
C135        N136   1.357       .  A
C135        N140   1.359       .  A
C135        C323   1.439       .  S
N136        C137   1.357       .  A
C137        N138   1.358       .  A
C137        C370   1.470       .  S
N138        C139   1.357       .  A
C139        N140   1.359       .  A
C139        C330   1.438       .  S
C141        N142   1.359       .  A
C141        N146   1.361       .  A
C141        C293   1.476       .  S
N142        C143   1.360   1_554  A
C143        N144   1.356       .  A
C143        C378   1.477       .  S
N144        C145   1.358       .  A
C145        N146   1.359   1_556  A
C145        C298   1.473       .  S
C147        N148   1.361   1_556  A
C147        N152   1.357       .  A
C147        C307   1.478       .  S
N148        C149   1.364       .  A
C149        N150   1.359       .  A
C149        C290   1.473       .  S
N150        C151   1.358   1_554  A
C151        N152   1.352       .  A
C151        C390   1.473       .  S
C153        N154   1.355       .  A
C153        N158   1.356       .  A
C153        C287   1.435       .  S
N154        C155   1.357       .  A
C155        N156   1.359   1_655  A
C155        C398   1.471       .  S
N156        C157   1.359       .  A
C157        N158   1.358   1_455  A
C157        C285   1.434       .  S
O159       Ni167   1.924       .  S
O159        C169   1.281       .  A
O160       Ni167   1.921       .  S
O160        C170   1.281       .  A
O161       Ni167   1.917       .  S
O161        C171   1.279       .  A
O162       Ni167   1.918       .  S
O162        C172   1.280       .  A
O163       Ni168   1.916       .  S
O163        C172   1.279       .  A
O164       Ni168   1.915       .  S
O164        C171   1.279       .  A
O165       Ni168   1.919       .  S
O165        C170   1.280       .  A
O166       Ni168   1.920       .  S
O166        C169   1.280       .  A
Ni167      Ni168   2.394       .  S
C169        C283   1.440       .  S
C170        C279   1.438       .  S
C171        C282   1.432       .  S
C172        C286   1.434       .  S
O173       Ni181   1.920       .  S
O173        C183   1.280       .  A
O174       Ni181   1.920       .  S
O174        C184   1.280       .  A
O175       Ni181   1.920       .  S
O175        C185   1.281       .  A
O176       Ni181   1.922       .  S
O176        C186   1.280       .  A
O177       Ni182   1.914       .  S
O177        C186   1.279       .  A
O178       Ni182   1.914       .  S
O178        C185   1.278       .  A
O179       Ni182   1.921       .  S
O179        C184   1.281       .  A
O180       Ni182   1.921       .  S
O180        C183   1.280       .  A
Ni181      Ni182   2.394       .  S
C183        C277   1.438       .  S
C184        C273   1.438       .  S
C185        C275   1.434       .  S
C186        C288   1.435       .  S
C187        N188   1.360       .  A
C187        N192   1.359       .  A
C187        C271   1.440       .  S
N188        C189   1.360       .  A
C189        N190   1.357   1_545  A
C189        C386   1.471       .  S
N190        C191   1.356       .  A
C191        N192   1.358   1_565  A
C191        C274   1.438       .  S
O193       Ni201   1.923       .  S
O193        C203   1.281       .  A
O194       Ni201   1.922       .  S
O194        C204   1.281       .  A
O195       Ni201   1.920       .  S
O195        C205   1.280       .  A
O196       Ni201   1.921       .  S
O196        C206   1.280       .  A
O197       Ni202   1.924       .  S
O197        C206   1.281       .  A
O198       Ni202   1.924       .  S
O198        C205   1.281       .  A
O199       Ni202   1.919       .  S
O199        C204   1.280       .  A
O200       Ni202   1.921       .  S
O200        C203   1.280       .  A
Ni201      Ni202   2.392       .  S
C203        C272   1.440       .  S
C204        C267   1.439       .  S
C205        C266   1.440       .  S
C206        C269   1.441       .  S
C207        N208   1.360       .  A
C207        N212   1.359       .  A
C207        C263   1.440       .  S
N208        C209   1.361       .  A
C209        N210   1.358   1_545  A
C209        C294   1.475       .  S
N210        C211   1.357       .  A
C211        N212   1.358   1_565  A
C211        C280   1.439       .  S
C213        N214   1.359       .  A
C213        N218   1.359   1_655  A
C213        C265   1.441       .  S
N214        C215   1.361   1_655  A
C215        N216   1.358       .  A
C215        C289   1.476       .  S
N216        C217   1.357       .  A
C217        N218   1.359       .  A
C217        C262   1.440       .  S
O219       Ni227   1.923       .  S
O219        C229   1.281       .  A
O220       Ni227   1.926       .  S
O220        C230   1.281       .  A
O221       Ni227   1.919       .  S
O221        C231   1.280       .  A
O222       Ni227   1.919       .  S
O222        C232   1.280       .  A
O223       Ni228   1.924       .  S
O223        C232   1.281       .  A
O224       Ni228   1.924       .  S
O224        C231   1.281       .  A
O225       Ni228   1.921       .  S
O225        C230   1.280       .  A
O226       Ni228   1.919       .  S
O226        C229   1.280       .  A
Ni227      Ni228   2.392       .  S
C229        C264   1.440       .  S
C230        C259   1.442       .  S
C231        C261   1.440       .  S
C232        C258   1.441       .  S
C233        N234   1.359       .  A
C233        N238   1.359       .  A
C233        C270   1.441       .  S
N234        C235   1.360       .  A
C235        N236   1.359       .  A
C235        C349   1.476       .  S
N236        C237   1.358       .  A
C237        N238   1.359       .  A
C237        C257   1.441       .  S
C239        N240   1.357       .  A
C239        N244   1.359       .  A
C239        C284   1.441       .  S
N240        C241   1.358       .  A
C241        N242   1.361       .  A
C241        C342   1.473       .  S
N242        C243   1.360       .  A
C243        N244   1.360       .  A
C243        C260   1.442       .  S
C245        N246   1.357       .  A
C245        N250   1.358       .  A
C245        C278   1.438       .  S
N246        C247   1.358       .  A
C247        N248   1.361       .  A
C247        C374   1.474       .  S
N248        C249   1.359       .  A
C249        N250   1.358       .  A
C249        C268   1.439       .  S
C251        N252   1.356       .  A
C251        N256   1.358       .  A
C251        C276   1.434       .  S
N252        C253   1.358       .  A
C253        N254   1.356       .  A
C253        C362   1.466       .  S
N254        C255   1.356       .  A
C255        N256   1.358       .  A
C255        C281   1.433       .  S
C257        C258   1.209       .  T
C259        C260   1.210       .  T
C261        C262   1.208       .  T
C263        C264   1.209       .  T
C265        C266   1.209       .  T
C267        C268   1.208       .  T
C269        C270   1.209       .  T
C271        C272   1.209       .  T
C273        C274   1.207       .  T
C275        C276   1.205       .  T
C277        C278   1.208       .  T
C279        C280   1.208       .  T
C281        C282   1.204       .  T
C283        C284   1.209       .  T
C285        C286   1.205       .  T
C287        C288   1.206       .  T
C289        C290   1.341   1_455  D
C289        H291   1.087       .  S
C290        H292   1.087       .  S
C293        C294   1.342       .  D
C293        H295   1.087       .  S
C294        H296   1.087   1_545  S
C297        C298   1.343   1_565  D
C297        H299   1.087       .  S
C298        H300   1.086       .  S
C301        C302   1.208       .  T
C303        C304   1.211       .  T
C305        C306   1.206       .  T
C307        C308   1.343       .  D
C307        H309   1.086   1_655  S
C308        H310   1.087       .  S
C311        C312   1.207       .  T
C313        C314   1.209       .  T
C315        C316   1.207       .  T
C317        C318   1.211       .  T
C319        C320   1.208       .  T
C321        C322   1.206       .  T
C323        C324   1.208       .  T
C325        C326   1.208       .  T
C327        C328   1.205       .  T
C329        C330   1.207       .  T
C331        C332   1.205       .  T
C333        C334   1.208       .  T
C335        C336   1.209       .  T
C337        C338   1.344       .  D
C337        H339   1.086       .  S
C338        H340   1.087       .  S
C341        C342   1.344       .  D
C341        H343   1.086       .  S
C342        H344   1.087       .  S
C345        C346   1.343       .  D
C345        H347   1.087       .  S
C346        H348   1.087       .  S
C349        C350   1.343       .  D
C349        H351   1.087       .  S
C350        H352   1.087       .  S
C353        C354   1.341   1_565  D
C353        H355   1.087   1_565  S
C354        H356   1.087       .  S
C357        C358   1.342       .  D
C357        H359   1.087       .  S
C358        H360   1.087       .  S
C361        C362   1.339       .  D
C361        H363   1.087       .  S
C362        H364   1.087       .  S
C365        C366   1.342   1_655  D
C365        H367   1.087   1_655  S
C366        H368   1.087       .  S
C369        C370   1.342       .  D
C369        H371   1.087       .  S
C370        H372   1.087       .  S
C373        C374   1.342       .  D
C373        H375   1.087       .  S
C374        H376   1.087       .  S
C377        C378   1.342   1_554  D
C377        H379   1.087       .  S
C378        H380   1.087       .  S
C381        C382   1.344       .  D
C381        H383   1.086       .  S
C382        H384   1.086   1_545  S
C385        C386   1.343       .  D
C385        H387   1.086       .  S
C386        H388   1.087   1_545  S
C389        C390   1.342   1_554  D
C389        H391   1.087       .  S
C390        H392   1.088       .  S
C393        C394   1.342   1_655  D
C393        H395   1.087       .  S
C394        H396   1.087       .  S
C397        C398   1.343       .  D
C397        H399   1.086   1_655  S
C398        H400   1.088       .  S
