geometry optimzed in LAMMPS
_audit_creation_date              2020-11-30 
_audit_creation_method            'lammps2cif' 
_symmetry_space_group_name_H-M    'P1' 
_symmetry_Int_Tables_number       1 
_symmetry_cell_setting            triclinic 
loop_ 
_symmetry_equiv_pos_as_xyz 
  x,y,z 
_cell_length_a                    55.743008 
_cell_length_b                    55.6954985066136 
_cell_length_c                    35.63981771835375 
_cell_angle_alpha                 90.05453700350645 
_cell_angle_beta                  89.95506346056764 
_cell_angle_gamma                 119.79587043961986 
loop_ 
_atom_site_label 
_atom_site_type_symbol 
_atom_site_fract_x 
_atom_site_fract_y 
_atom_site_fract_z 
_atom_site_charge 
C1          C  0.20242638  0.09997981  0.43175583     0.79700
N2          N  0.18934638  0.07265176  0.44112632    -0.78600
C3          C  0.16319003  0.06002241  0.45501062     0.82200
N4          N  0.15019897  0.07491234  0.45991507    -0.78500
C5          C  0.16349178  0.10246585  0.45260045     0.82300
N6          N  0.18953285  0.11492172  0.43832845    -0.80200
C7          C  0.14783357  0.15875766  0.47305480     0.79700
N8          N  0.11997777  0.14501249  0.46757809    -0.78600
C9          C  0.10643317  0.11790545  0.45771831     0.82200
N10         N  0.12079561  0.10436030  0.45331450    -0.78500
C11         C  0.14865619  0.11789364  0.45754527     0.82300
N12         N  0.16214618  0.14503816  0.46778214    -0.80200
C13         C  0.03490364  0.10252978  0.43809051     0.79700
N14         N  0.02048797  0.07465978  0.44399684    -0.78600
C15         C  0.03392691  0.06095288  0.45450908     0.82200
N16         N  0.06183017  0.07509780  0.45842079    -0.78500
C17         C  0.07626842  0.10288903  0.45343839     0.82300
N18         N  0.06277720  0.11647487  0.44321025    -0.80200
C19         C  0.03574509  0.43441928  0.42804884     0.79700
N20         N  0.02128104  0.44774459  0.43519845    -0.78600
C21         C  0.03400986  0.47339919  0.45082126     0.82200
N22         N  0.06137514  0.48594220  0.45870781    -0.78500
C23         C  0.07593668  0.47273526  0.45270846     0.82300
N24         N  0.06313499  0.44697701  0.43715652    -0.80200
C25         C  0.47899359  0.48935902  0.47741143     0.79700
N26         N  0.49238586  0.47504193  0.46975920    -0.78600
C27         C  0.01895744  0.48844793  0.45747316     0.82200
N28         N  0.03226221  0.01632183  0.45312741    -0.78500
C29         C  0.01896173  0.03076090  0.45961257     0.82300
N30         N  0.49242777  0.01727549  0.47210179    -0.80200
C31         C  0.14673385  0.48867149  0.48035371     0.79700
N32         N  0.11904805  0.47433904  0.47313165    -0.78600
C33         C  0.10585523  0.48768083  0.46025100     0.82200
N34         N  0.12030921  0.01551793  0.45532951    -0.78500
C35         C  0.14794570  0.02996588  0.46160351     0.82300
N36         N  0.16108335  0.01650406  0.47411614    -0.80200
Fe37       Fe  0.21746368  0.35515837  0.70488670     1.65800
Fe38       Fe  0.27734824  0.41799155  0.70370282     1.73200
Fe39       Fe  0.28040302  0.35803388  0.70189102     1.54400
O40         O  0.25712559  0.32962344  0.74292111    -0.82200
O41         O  0.30339308  0.42202031  0.66016384    -0.80500
O42         O  0.21685571  0.32887031  0.74657497    -0.84700
O43         O  0.21542503  0.32853233  0.66275002    -0.79500
O44         O  0.30734288  0.38260633  0.74356673    -0.81300
O45         O  0.25109355  0.41950519  0.66408125    -0.84000
C46         C  0.23205371  0.32186857  0.64803974     0.96700
C47         C  0.23331609  0.32065191  0.75726616     1.04200
O48         O  0.25840509  0.37705533  0.70360778    -1.13000
O49         O  0.25368205  0.41922541  0.74728121    -0.75500
O50         O  0.21405152  0.37923350  0.74662297    -0.78900
O51         O  0.25661895  0.33128496  0.65971363    -0.79600
C52         C  0.22946180  0.40342855  0.75954453     0.95600
O53         O  0.21271775  0.37839481  0.66335778    -0.77600
O54         O  0.30657023  0.42220628  0.74281113    -0.82800
C55         C  0.31300339  0.40730390  0.64724531     0.98300
C56         C  0.31613187  0.40721399  0.75490713     1.04200
O57         O  0.30646728  0.38367532  0.66044216    -0.78400
C58         C  0.22736804  0.40283183  0.65097954     1.02500
C59         C  0.03758627  0.09773024  0.98483362     0.79700
N60         N  0.02237314  0.07031790  0.97616490    -0.78600
C61         C  0.03441912  0.05710669  0.95931320     0.82200
N62         N  0.06181485  0.07132674  0.95128331    -0.78500
C63         C  0.07703232  0.09887593  0.95814871     0.82300
N64         N  0.06488159  0.11210422  0.97497237    -0.80200
C65         C  0.47913466  0.48672554  0.93143286     0.79700
N66         N  0.49184755  0.47178567  0.93914703    -0.78600
C67         C  0.01790657  0.48437303  0.95318343     0.82200
N68         N  0.03145417  0.01206040  0.95911564    -0.78500
C69         C  0.01885146  0.02711529  0.95265522     0.82300
N70         N  0.49272721  0.01448094  0.93850928    -0.80200
C71         C  0.03279298  0.42804308  0.97643278     0.79700
N72         N  0.01872939  0.44189747  0.97019090    -0.78600
C73         C  0.03247146  0.46886795  0.95937817     0.82200
N74         N  0.06027791  0.48201060  0.95497823    -0.78500
C75         C  0.07434579  0.46827061  0.96021960     0.82300
N76         N  0.06062933  0.44141814  0.97118424    -0.80200
C77         C  0.14359395  0.48161766  0.93151521     0.79700
N78         N  0.11638577  0.46819049  0.94096954    -0.78600
C79         C  0.10415181  0.48247251  0.95349514     0.82200
N80         N  0.11926023  0.01032988  0.95704731    -0.78500
C81         C  0.14675110  0.02387030  0.94966785     0.82300
N82         N  0.15893387  0.00952620  0.93672508    -0.80200
C83         C  0.20222042  0.09449212  0.97508310     0.79700
N84         N  0.18856490  0.06672670  0.96846443    -0.78600
C85         C  0.16248991  0.05400967  0.95434655     0.82200
N86         N  0.14983907  0.06899629  0.94752191    -0.78500
C87         C  0.16336351  0.09674478  0.95299565     0.82300
N88         N  0.18949509  0.10944612  0.96706499    -0.80200
C89         C  0.14670205  0.15071008  0.92249423     0.79700
N90         N  0.16120485  0.13746945  0.93006173    -0.78600
C91         C  0.14853557  0.11209160  0.94650001     0.82200
N92         N  0.12126743  0.09990326  0.95517059    -0.78500
C93         C  0.10684999  0.11330267  0.94944794     0.82300
N94         N  0.11963139  0.13874357  0.93314665    -0.80200
Fe95       Fe  0.40168898  0.16787585  0.20840963     1.65800
Fe96       Fe  0.40342485  0.23022592  0.20043679     1.73200
Fe97       Fe  0.46383366  0.22826905  0.20619654     1.54400
O98         O  0.46586117  0.20433039  0.24907346    -0.82200
O99         O  0.42812002  0.25431579  0.15662148    -0.80500
O100        O  0.42500818  0.16590291  0.25211140    -0.84700
O101        O  0.42615253  0.16271136  0.16889179    -0.79500
O102        O  0.46645486  0.25629616  0.24653651    -0.81300
O103        O  0.37565984  0.20372226  0.16050020    -0.84000
C104        C  0.44998028  0.17798684  0.15478470     0.96700
C105        C  0.44951262  0.18112537  0.26383624     1.04200
O106        O  0.42295717  0.20878815  0.20509028    -1.13000
O107        O  0.37617148  0.20880025  0.24357494    -0.75500
O108        O  0.37464923  0.16818111  0.24819636    -0.78900
O109        O  0.46586148  0.20268253  0.16564058    -0.79600
C110        C  0.36675571  0.18505729  0.25835441     0.95600
O111        O  0.37533205  0.16379008  0.16506677    -0.77600
O112        O  0.42863092  0.25983304  0.23976992    -0.82800
C113        C  0.45309714  0.26306082  0.14721883     0.98300
C114        C  0.45182480  0.26715237  0.25529302     1.04200
O115        O  0.46807793  0.25511803  0.16360543    -0.78400
C116        C  0.36708717  0.17898251  0.14985128     1.02500
C117        C  0.31928461  0.17022597  0.06750138    -0.11900
C118        C  0.30043554  0.14170352  0.06895615     0.14700
C119        C  0.30522720  0.12526732  0.09470384     0.01600
C120        C  0.32773879  0.13783453  0.11942362    -0.16200
C121        C  0.34577029  0.16668707  0.11957671    -0.11000
C122        C  0.34190273  0.18278716  0.09201766     0.08300
C123        C  0.27570314  0.13006438  0.04403067     0.09300
S124        S  0.28291404  0.08832804  0.09845998    -0.25400
H125        H  0.33044699  0.12495878  0.13981083     0.19600
S126        S  0.36549393  0.21919095  0.08551348    -0.31100
H127        H  0.31626488  0.18286330  0.04703589     0.09900
C128        C  0.25538417  0.13792107  0.04832836     0.03100
C129        C  0.23245474  0.12691979  0.02424852    -0.13400
C130        C  0.22875688  0.10755660  0.99628132    -0.09000
C131        C  0.24917609  0.09963435  0.99206478     0.06600
C132        C  0.27235660  0.11100388  0.01582482    -0.14100
S133        S  0.25772855  0.16075474  0.08600286    -0.31000
H134        H  0.21669679  0.13263006  0.02827002     0.10800
S135        S  0.24728187  0.07561842  0.95663169    -0.28100
H136        H  0.28795821  0.10499498  0.01227686     0.08000
H137        H  0.38929559  0.21702228  0.09155941     0.26500
H138        H  0.23266631  0.16021110  0.07874838     0.21300
H139        H  0.23497514  0.08423228  0.92929877     0.26600
H140        H  0.25822239  0.08826617  0.09026815     0.15400
C141        C  0.51677227  0.35701268  0.01224023    -0.11900
C142        C  0.49556469  0.35138445  0.03796481     0.14700
C143        C  0.98557826  0.37015686  0.04127689     0.01600
C144        C  0.99669310  0.39378435  0.01869576    -0.16200
C145        C  0.01859831  0.40006539  0.99378082    -0.11000
C146        C  0.02822797  0.38090774  0.98996525     0.08300
C147        C  0.48522172  0.32663384  0.06237409     0.09300
S148        S  0.95995274  0.36619086  0.07545810    -0.25400
H149        H  0.98927185  0.40828375  0.02250855     0.19600
S150        S  0.05468287  0.38530341  0.95700481    -0.31100
H151        H  0.52448195  0.34265868  0.00955490     0.09900
C152        C  0.45774358  0.30465229  0.06041716     0.03100
C153        C  0.44794041  0.28379759  0.08785220    -0.13400
C154        C  0.46532032  0.28383224  0.11650116    -0.09000
C155        C  0.49354055  0.30485717  0.11629314     0.06600
C156        C  0.50297148  0.32607189  0.08968111    -0.14100
S157        S  0.43524370  0.30317357  0.02294632    -0.31000
H158        H  0.42655956  0.26751013  0.08717243     0.10800
S159        S  0.01819969  0.30718017  0.15076614    -0.28100
H160        H  0.02421725  0.34278796  0.09092962     0.08000
H161        H  0.04646829  0.39754203  0.92903851     0.26500
H162        H  0.41202017  0.27809467  0.03375904     0.21300
H163        H  0.51695382  0.28254651  0.13852256     0.26600
H164        H  0.46826995  0.35407436  0.10341474     0.15400
C165        C  0.02484692  0.14180596  0.05592054    -0.11900
C166        C  0.49681762  0.13290484  0.04972309     0.14700
C167        C  0.48254314  0.11306089  0.02142709     0.01600
C168        C  0.99645216  0.10234483  0.00053549    -0.16200
C169        C  0.02451083  0.11097127  0.00690829    -0.11000
C170        C  0.03863990  0.13074008  0.03554517     0.08300
C171        C  0.48290102  0.14348511  0.07500806     0.09300
S172        S  0.44647481  0.10005644  0.01107444    -0.25400
H173        H  0.48518462  0.08705822  0.97906418     0.19600
S174        S  0.07337080  0.14092694  0.05007224    -0.31100
H175        H  0.03573583  0.15658742  0.07808619     0.09900
C176        C  0.46602064  0.12742683  0.10496616     0.03100
C177        C  0.45463236  0.13882628  0.12960859    -0.13400
C178        C  0.46000984  0.16615807  0.12532825    -0.09000
C179        C  0.47617596  0.18184986  0.09440292     0.06600
C180        C  0.48770341  0.17050260  0.07001718    -0.14100
S181        S  0.46011018  0.09287574  0.11293794    -0.31000
H182        H  0.44232738  0.12674549  0.15320921     0.10800
S183        S  0.48226571  0.21611707  0.08387050    -0.28100
H184        H  0.00044157  0.18278973  0.04679294     0.08000
H185        H  0.06936838  0.11391665  0.04884146     0.26500
H186        H  0.44348596  0.08718289  0.14508173     0.21300
H187        H  0.45624739  0.21121747  0.09631215     0.26600
H188        H  0.44523783  0.12331549  0.02370522     0.15400
C189        C  0.19634148  0.27367842  0.84074410    -0.11900
C190        C  0.20152566  0.25180160  0.83423047     0.14700
C191        C  0.21856842  0.25364046  0.80369605     0.01600
C192        C  0.22983971  0.27705100  0.78052210    -0.16200
C193        C  0.22390571  0.29854865  0.78616750    -0.11000
C194        C  0.20752071  0.29705833  0.81740740     0.08300
C195        C  0.18778809  0.22686131  0.85859393     0.09300
S196        S  0.22587947  0.22643422  0.79169020    -0.25400
H197        H  0.24225384  0.27780736  0.75666725     0.19600
S198        S  0.20074074  0.32452044  0.82972612    -0.31100
H199        H  0.18350181  0.27252798  0.86427375     0.09900
C200        C  0.20255615  0.22016705  0.88468033     0.03100
C201        C  0.18861769  0.19543102  0.90536912    -0.13400
C202        C  0.16008381  0.17711614  0.90071411    -0.09000
C203        C  0.14546630  0.18411576  0.87435586     0.06600
C204        C  0.15933103  0.20898227  0.85432394    -0.14100
S205        S  0.23905994  0.24329657  0.89193060    -0.31000
H206        H  0.20002067  0.19034162  0.92535995     0.10800
S207        S  0.10968824  0.16149501  0.86246943    -0.28100
H208        H  0.14801019  0.21393452  0.83394415     0.08000
H209        H  0.22623247  0.34610966  0.81678280     0.26500
H210        H  0.24272217  0.22760787  0.91990718     0.21300
H211        H  0.11225930  0.13763895  0.86029806     0.26600
H212        H  0.20079305  0.20432491  0.80464217     0.15400
C213        C  0.38155590  0.45671004  0.80846840    -0.11900
C214        C  0.38145414  0.43960750  0.83736271     0.14700
C215        C  0.35944900  0.41203888  0.83955908     0.01600
C216        C  0.33857442  0.40199251  0.81228968    -0.16200
C217        C  0.33874766  0.41898603  0.78304675    -0.11000
C218        C  0.36077025  0.44668412  0.78111054     0.08300
C219        C  0.40570052  0.45053918  0.86280902     0.09300
S220        S  0.35697483  0.38858746  0.87619599    -0.25400
H221        H  0.32186677  0.38078295  0.81417300     0.19600
S222        S  0.36477855  0.46972585  0.74305563    -0.31100
H223        H  0.39862185  0.47772743  0.80632027     0.09900
C224        C  0.42583470  0.44245863  0.85885729     0.03100
C225        C  0.44886272  0.45378414  0.88273600    -0.13400
C226        C  0.45260500  0.47345638  0.91032148    -0.09000
C227        C  0.43205749  0.48115207  0.91457176     0.06600
C228        C  0.40907241  0.46987120  0.89054175    -0.14100
S229        S  0.42298041  0.41882299  0.82205114    -0.31000
H230        H  0.46462554  0.44805088  0.87885859     0.10800
S231        S  0.43343629  0.50452990  0.95061536    -0.28100
H232        H  0.39351534  0.47599329  0.89369711     0.08000
H233        H  0.35630983  0.44934993  0.71494397     0.26500
H234        H  0.44712546  0.41796230  0.83092303     0.21300
H235        H  0.44583492  0.49578931  0.97765178     0.26600
H236        H  0.37125237  0.40891371  0.90363778     0.15400
C237        C  0.15386958  0.43193628  0.86880172    -0.11900
C238        C  0.18209588  0.44138801  0.87387859     0.14700
C239        C  0.19715127  0.46296052  0.89978990     0.01600
C240        C  0.18398863  0.47530016  0.91866176    -0.16200
C241        C  0.15589429  0.46646899  0.91269752    -0.11000
C242        C  0.14067973  0.44424432  0.88746066     0.08300
C243        C  0.19581228  0.43141209  0.84738890     0.09300
S244        S  0.23329723  0.47599958  0.90948396    -0.25400
H245        H  0.19589017  0.99211318  0.93801741     0.19600
S246        S  0.10522305  0.43221880  0.87451492    -0.31100
H247        H  0.14236295  0.41593270  0.84821390     0.09900
C248        C  0.18785255  0.40317471  0.84411396     0.03100
C249        C  0.19924193  0.39463736  0.81540391    -0.13400
C250        C  0.21854386  0.41371352  0.78985064    -0.09000
C251        C  0.22647062  0.44205829  0.79350036     0.06600
C252        C  0.21524939  0.45048881  0.82223767    -0.14100
S253        S  0.16352685  0.37806100  0.87676500    -0.31000
H254        H  0.19305513  0.37298249  0.81281210     0.10800
S255        S  0.24908439  0.46840396  0.76094230    -0.28100
H256        H  0.22082424  0.47207847  0.82400361     0.08000
H257        H  0.10923454  0.45898366  0.86893329     0.26500
H258        H  0.16328253  0.35472695  0.86117447     0.21300
H259        H  0.23637413  0.45232945  0.72883871     0.26600
H260        H  0.23330056  0.45140644  0.90052929     0.15400
C261        C  0.22161862  0.44199163  0.56707993    -0.11900
C262        C  0.19399559  0.43575405  0.57004758     0.14700
C263        C  0.17690951  0.41674174  0.59770922     0.01600
C264        C  0.18796234  0.40517630  0.62236753    -0.16200
C265        C  0.21599809  0.41260940  0.62079399    -0.11000
C266        C  0.23273220  0.43057961  0.59190585     0.08300
C267        C  0.18374441  0.44980212  0.54455526     0.09300
S268        S  0.14117602  0.40728024  0.60414054    -0.25400
H269        H  0.17486529  0.39132062  0.64416704     0.19600
S270        S  0.26815585  0.43921547  0.58454784    -0.31100
H271        H  0.23464843  0.45600125  0.54536619     0.09900
C272        C  0.19373278  0.47848940  0.54724077     0.03100
C273        C  0.18214441  0.49071123  0.52463962    -0.13400
C274        C  0.16062153  0.47496497  0.49923502    -0.09000
C275        C  0.15173460  0.44641900  0.49524397     0.06600
C276        C  0.16315122  0.43418074  0.51813561    -0.14100
S277        S  0.22003379  0.49934620  0.58118566    -0.31000
H278        H  0.18912628  0.01250992  0.52805186     0.10800
S279        S  0.12652647  0.42453832  0.46098692    -0.28100
H280        H  0.15586561  0.41224081  0.51545125     0.08000
H281        H  0.26411396  0.41315558  0.59533559     0.26500
H282        H  0.22229910  0.02488383  0.57159588     0.21300
H283        H  0.13542018  0.44515965  0.43321201     0.26600
H284        H  0.14453243  0.43327581  0.59468101     0.15400
C285        C  0.35829884  0.41342719  0.56388717    -0.11900
C286        C  0.37919348  0.44121195  0.56690707     0.14700
C287        C  0.37655164  0.45828308  0.59403664     0.01600
C288        C  0.35380617  0.44701670  0.61829093    -0.16200
C289        C  0.33377247  0.41881647  0.61680373    -0.11000
C290        C  0.33560230  0.40211970  0.58829165     0.08300
C291        C  0.40353686  0.45175821  0.54164955     0.09300
S292        S  0.40205596  0.49425042  0.60039928    -0.25400
H293        H  0.35257439  0.46009069  0.63983452     0.19600
S294        S  0.30936843  0.36654040  0.58091380    -0.31100
H295        H  0.35977475  0.40044505  0.54242665     0.09900
C296        C  0.42236177  0.44185530  0.54409342     0.03100
C297        C  0.44605598  0.45361062  0.52141299    -0.13400
C298        C  0.45153512  0.47517871  0.49620471    -0.09000
C299        C  0.43180178  0.48400910  0.49250832     0.06600
C300        C  0.40826004  0.47241467  0.51542549    -0.14100
S301        S  0.41731244  0.41554639  0.57787554    -0.31000
H302        H  0.46104469  0.44679655  0.52468749     0.08200
S303        S  0.43490663  0.00936941  0.45858614    -0.28100
H304        H  0.39348688  0.47959860  0.51290239     0.08000
H305        H  0.28710808  0.37022293  0.59170181     0.26500
H306        H  0.43913879  0.41166065  0.56560948     0.21300
H307        H  0.44734757  0.00116801  0.43085208     0.26600
H308        H  0.42507233  0.49130300  0.59175865     0.15400
C309        C  0.01426965  0.36229021  0.38955723    -0.11900
C310        C  0.49931691  0.36156491  0.35737590     0.14700
C311        C  0.49602647  0.38459929  0.34940623     0.01600
C312        C  0.50714665  0.40735770  0.37376839    -0.16200
C313        C  0.02267052  0.40847852  0.40545318    -0.11000
C314        C  0.02623236  0.38558285  0.41341856     0.08300
C315        C  0.48727503  0.33660512  0.33264795     0.09300
S316        S  0.47876514  0.38671150  0.30780815    -0.25400
H317        H  0.50460639  0.42493782  0.36698386     0.19600
S318        S  0.04496123  0.38540385  0.45465224    -0.31100
H319        H  0.01658363  0.34452610  0.39583276     0.09900
C320        C  0.50419221  0.33006475  0.31045685     0.03100
C321        C  0.49203030  0.30696289  0.28645922    -0.13400
C322        C  0.46311081  0.29007205  0.28362667    -0.09000
C323        C  0.44622492  0.29647704  0.30660167     0.06600
C324        C  0.45844638  0.31967245  0.33039943    -0.14100
S325        S  0.04132776  0.35196230  0.31126311    -0.31000
H326        H  0.50521946  0.30247867  0.26899638     0.10800
S327        S  0.40908266  0.27553761  0.30800681    -0.28100
H328        H  0.44534110  0.32450277  0.34758208     0.08000
H329        H  0.04309441  0.35963053  0.44799220     0.26500
H330        H  0.04716058  0.33881000  0.28181606     0.21300
H331        H  0.40885444  0.25017485  0.30645023     0.26600
H332        H  0.48700240  0.37173726  0.28446569     0.15400
C333        C  0.48133362  0.12064360  0.40212877    -0.11900
C334        C  0.49637464  0.13926016  0.37322314     0.14700
C335        C  0.02464936  0.14773483  0.36884654     0.01600
C336        C  0.03691689  0.13681661  0.39228357    -0.16200
C337        C  0.02157968  0.11687124  0.41971259    -0.11000
C338        C  0.49363747  0.10953574  0.42553884     0.08300
C339        C  0.48223540  0.14934534  0.34765921     0.09300
S340        S  0.04595964  0.17127425  0.33256472    -0.25400
H341        H  0.05836131  0.14281484  0.38736806     0.19600
S342        S  0.47286614  0.08689033  0.46283509    -0.31100
H343        H  0.45981168  0.11463514  0.40632267     0.09900
C344        C  0.46215658  0.13147810  0.32174714     0.03100
C345        C  0.45100835  0.14227852  0.29586768    -0.13400
C346        C  0.45973658  0.17070819  0.29482937    -0.09000
C347        C  0.47927640  0.18839341  0.32170457     0.06600
C348        C  0.49030034  0.17755345  0.34759670    -0.14100
S349        S  0.45207150  0.09523130  0.31988710    -0.31000
H350        H  0.43624585  0.12866065  0.27524582     0.10800
S351        S  0.99073561  0.22483173  0.32494786    -0.28100
H352        H  0.00558750  0.19129409  0.36766490     0.08000
H353        H  0.49501277  0.09460208  0.48788118     0.26500
H354        H  0.43326612  0.08797925  0.28998060     0.21300
H355        H  0.46483974  0.22196589  0.31609860     0.26600
H356        H  0.02512882  0.16173971  0.30509549     0.15400
C357        C  0.19363359  0.27989229  0.56165827    -0.11900
C358        C  0.19973112  0.25828253  0.56313495     0.14700
C359        C  0.21812742  0.25899007  0.59096441     0.01600
C360        C  0.22938408  0.28070555  0.61699414    -0.16200
C361        C  0.22219200  0.30156186  0.61677738    -0.11000
C362        C  0.20470137  0.30150109  0.58795249     0.08300
C363        C  0.18588445  0.23475965  0.53639890     0.09300
S364        S  0.22714120  0.23220430  0.59591843    -0.25400
H365        H  0.24285596  0.28055434  0.63878437     0.19600
S366        S  0.19634071  0.32871134  0.58252103    -0.31100
H367        H  0.17997200  0.27979177  0.53996841     0.09900
C368        C  0.15722513  0.21619163  0.53861490     0.03100
C369        C  0.14527220  0.19254504  0.51586029    -0.13400
C370        C  0.16123565  0.18669572  0.49079583    -0.09000
C371        C  0.18967062  0.20638417  0.48679232     0.06600
C372        C  0.20167825  0.22997998  0.50982268    -0.14100
S373        S  0.13605292  0.22119164  0.57267025    -0.31000
H374        H  0.12354160  0.17770998  0.51934851     0.10800
S375        S  0.21166380  0.20292761  0.45268436    -0.28100
H376        H  0.22360171  0.24455845  0.50742166     0.08000
H377        H  0.22217078  0.35008776  0.59487220     0.26500
H378        H  0.11033721  0.20044380  0.55905541     0.21300
H379        H  0.19079902  0.18985068  0.42550450     0.26600
H380        H  0.20123117  0.21017506  0.58518926     0.15400
C381        C  0.26127904  0.11207757  0.36527681    -0.11900
C382        C  0.27912706  0.14060023  0.36939157     0.14700
C383        C  0.27233718  0.15540454  0.39545585     0.01600
C384        C  0.24757165  0.14157103  0.41584488    -0.16200
C385        C  0.22930660  0.11300841  0.41128100    -0.11000
C386        C  0.23654062  0.09820096  0.38549234     0.08300
C387        C  0.30329131  0.15432766  0.34371434     0.09300
S388        S  0.29432618  0.19192390  0.40389873    -0.25400
H389        H  0.24252725  0.15327981  0.43542505     0.19600
S390        S  0.21439633  0.06215231  0.37433550    -0.31100
H391        H  0.26614197  0.10070542  0.34487134     0.09900
C392        C  0.32504002  0.14832392  0.34504227     0.03100
C393        C  0.34583985  0.15925449  0.31751944    -0.13400
C394        C  0.34559012  0.17632671  0.28862009    -0.09000
C395        C  0.32413036  0.18298649  0.28820217     0.06600
C396        C  0.30325204  0.17182844  0.31547107    -0.14100
S397        S  0.32625972  0.12665382  0.38181292    -0.31000
H398        H  0.36226483  0.15424050  0.31826578     0.10800
S399        S  0.32073448  0.20338314  0.25167158    -0.28100
H400        H  0.28637130  0.17618322  0.31404314     0.08000
H401        H  0.19071895  0.06471348  0.36937534     0.26500
H402        H  0.35138161  0.12848349  0.37097035     0.21300
H403        H  0.34479451  0.22765914  0.26275838     0.26600
H404        H  0.31930951  0.19277627  0.39496046     0.15400
C405        C  0.20242647  0.59998009  0.43175576     0.79700
N406        N  0.18934659  0.57265207  0.44112636    -0.78600
C407        C  0.16319026  0.56002265  0.45501071     0.82200
N408        N  0.15019910  0.57491249  0.45991512    -0.78500
C409        C  0.16349181  0.60246599  0.45260040     0.82300
N410        N  0.18953285  0.61492193  0.43832835    -0.80200
C411        C  0.14783331  0.65875761  0.47305464     0.79700
N412        N  0.11997752  0.64501235  0.46757788    -0.78600
C413        C  0.10643302  0.61790531  0.45771806     0.82200
N414        N  0.12079556  0.60436025  0.45331430    -0.78500
C415        C  0.14865613  0.61789368  0.45754513     0.82300
N416        N  0.16214603  0.64503821  0.46778200    -0.80200
C417        C  0.03490342  0.60252935  0.43809022     0.79700
N418        N  0.02048783  0.57465936  0.44399668    -0.78600
C419        C  0.03392687  0.56095256  0.45450900     0.82200
N420        N  0.06183013  0.57509758  0.45842068    -0.78500
C421        C  0.07626829  0.60288880  0.45343815     0.82300
N422        N  0.06277698  0.61647453  0.44320992    -0.80200
C423        C  0.03574458  0.93441931  0.42804875     0.79700
N424        N  0.02128061  0.94774472  0.43519827    -0.78600
C425        C  0.03400952  0.97339933  0.45082103     0.82200
N426        N  0.06137480  0.98594226  0.45870759    -0.78500
C427        C  0.07593625  0.97273523  0.45270830     0.82300
N428        N  0.06313447  0.94697695  0.43715645    -0.80200
C429        C  0.47899364  0.98935950  0.47741147     0.79700
N430        N  0.49238579  0.97504230  0.46975909    -0.78600
C431        C  0.01895718  0.98844815  0.45747299     0.82200
N432        N  0.03226238  0.51632161  0.45312753    -0.78500
C433        C  0.01896179  0.53076059  0.45961258     0.82300
N434        N  0.49242766  0.51727502  0.47210185    -0.80200
C435        C  0.14673328  0.98867121  0.48035401     0.79700
N436        N  0.11904749  0.97433884  0.47313183    -0.78600
C437        C  0.10585479  0.98768070  0.46025091     0.82200
N438        N  0.12030953  0.51551808  0.45532973    -0.78500
C439        C  0.14794604  0.52996612  0.46160359     0.82300
N440        N  0.16108382  0.51650436  0.47411595    -0.80200
Fe441      Fe  0.21746345  0.85515830  0.70488690     1.65800
Fe442      Fe  0.27734791  0.91799159  0.70370269     1.73200
Fe443      Fe  0.28040288  0.85803401  0.70189086     1.54400
O444        O  0.25712557  0.82962352  0.74292095    -0.82200
O445        O  0.30339288  0.92202046  0.66016383    -0.80500
O446        O  0.21685567  0.82887032  0.74657514    -0.84700
O447        O  0.21542478  0.82853224  0.66275022    -0.79500
O448        O  0.30734271  0.88260652  0.74356660    -0.81300
O449        O  0.25109318  0.91950501  0.66408099    -0.84000
C450        C  0.23205346  0.82186853  0.64803980     0.96700
C451        C  0.23331611  0.82065195  0.75726615     1.04200
O452        O  0.25840486  0.87705536  0.70360774    -1.13000
O453        O  0.25368166  0.91922548  0.74728098    -0.75500
O454        O  0.21405131  0.87923342  0.74662321    -0.78900
O455        O  0.25661877  0.83128504  0.65971349    -0.79600
C456        C  0.22946151  0.90342855  0.75954455     0.95600
O457        O  0.21271732  0.87839465  0.66335804    -0.77600
O458        O  0.30656987  0.92220639  0.74281111    -0.82800
C459        C  0.31300326  0.90730412  0.64724529     0.98300
C460        C  0.31613156  0.90721415  0.75490711     1.04200
O461        O  0.30646712  0.88367550  0.66044200    -0.78400
C462        C  0.22736759  0.90283160  0.65097953     1.02500
C463        C  0.03758643  0.59773033  0.98483336     0.79700
N464        N  0.02237329  0.57031796  0.97616478    -0.78600
C465        C  0.03441921  0.55710670  0.95931304     0.82200
N466        N  0.06181492  0.57132675  0.95128299    -0.78500
C467        C  0.07703241  0.59887596  0.95814825     0.82300
N468        N  0.06488172  0.61210429  0.97497195    -0.80200
C469        C  0.47913451  0.98672560  0.93143246     0.79700
N470        N  0.49184742  0.97178573  0.93914649    -0.78600
C471        C  0.01790638  0.98437301  0.95318318     0.82200
N472        N  0.03145436  0.51206044  0.95911568    -0.78500
C473        C  0.01885157  0.52711527  0.95265526     0.82300
N474        N  0.49272735  0.51448088  0.93850961    -0.80200
C475        C  0.03279285  0.92804315  0.97643276     0.79700
N476        N  0.01872921  0.94189747  0.97019075    -0.78600
C477        C  0.03247125  0.96886792  0.95937789     0.82200
N478        N  0.06027769  0.98201061  0.95497796    -0.78500
C479        C  0.07434562  0.96827068  0.96021947     0.82300
N480        N  0.06062920  0.94141825  0.97118423    -0.80200
C481        C  0.14359378  0.98161768  0.93151534     0.79700
N482        N  0.11638559  0.96819055  0.94096962    -0.78600
C483        C  0.10415163  0.98247261  0.95349503     0.82200
N484        N  0.11926040  0.51032978  0.95704753    -0.78500
C485        C  0.14675126  0.52387022  0.94966798     0.82300
N486        N  0.15893402  0.50952617  0.93672503    -0.80200
C487        C  0.20222049  0.59449214  0.97508295     0.79700
N488        N  0.18856502  0.56672671  0.96846444    -0.78600
C489        C  0.16249002  0.55400960  0.95434659     0.82200
N490        N  0.14983912  0.56899615  0.94752182    -0.78500
C491        C  0.16336353  0.59674465  0.95299540     0.82300
N492        N  0.18949511  0.60944607  0.96706471    -0.80200
C493        C  0.14670220  0.65070995  0.92249370     0.79700
N494        N  0.16120494  0.63746927  0.93006128    -0.78600
C495        C  0.14853560  0.61209144  0.94649958     0.82200
N496        N  0.12126746  0.59990317  0.95517014    -0.78500
C497        C  0.10685008  0.61330263  0.94944743     0.82300
N498        N  0.11963154  0.63874352  0.93314610    -0.80200
Fe499      Fe  0.40168882  0.66787583  0.20840917     1.65800
Fe500      Fe  0.40342492  0.73022601  0.20043681     1.73200
Fe501      Fe  0.46383360  0.72826895  0.20619676     1.54400
O502        O  0.46586083  0.70432989  0.24907335    -0.82200
O503        O  0.42812020  0.75431596  0.15662170    -0.80500
O504        O  0.42500770  0.66590256  0.25211110    -0.84700
O505        O  0.42615255  0.66271147  0.16889150    -0.79500
O506        O  0.46645465  0.75629574  0.24653715    -0.81300
O507        O  0.37565991  0.70372255  0.16050008    -0.84000
C508        C  0.44998031  0.67798700  0.15478448     0.96700
C509        C  0.44951215  0.68112487  0.26383603     1.04200
O510        O  0.42295712  0.70878814  0.20509019    -1.13000
O511        O  0.37617151  0.70880030  0.24357480    -0.75500
O512        O  0.37464891  0.66818097  0.24819569    -0.78900
O513        O  0.46586148  0.70268269  0.16564043    -0.79600
C514        C  0.36675555  0.68505723  0.25835397     0.95600
O515        O  0.37533219  0.66379038  0.16506610    -0.77600
O516        O  0.42863092  0.75983295  0.23977014    -0.82800
C517        C  0.45309739  0.76306116  0.14721934     0.98300
C518        C  0.45182464  0.76715202  0.25529358     1.04200
O519        O  0.46807817  0.75511837  0.16360602    -0.78400
C520        C  0.36708730  0.67898287  0.14985086     1.02500
C521        C  0.31928442  0.67022659  0.06750142    -0.11900
C522        C  0.30043563  0.64170403  0.06895582     0.14700
C523        C  0.30522758  0.62526777  0.09470303     0.01600
C524        C  0.32773919  0.63783493  0.11942279    -0.16200
C525        C  0.34577041  0.66668755  0.11957628    -0.11000
C526        C  0.34190256  0.68278774  0.09201772     0.08300
C527        C  0.27570324  0.63006481  0.04403036     0.09300
S528        S  0.28291471  0.58832841  0.09845868    -0.25400
H529        H  0.33044759  0.62495918  0.13980953     0.19600
S530        S  0.36549337  0.71919169  0.08551414    -0.31100
H531        H  0.31626447  0.68286389  0.04703643     0.09900
C532        C  0.25538403  0.63792116  0.04832831     0.03100
C533        C  0.23245463  0.62691974  0.02424851    -0.13400
C534        C  0.22875693  0.60755675  0.99628115    -0.09000
C535        C  0.24917634  0.59963480  0.99206439     0.06600
C536        C  0.27235687  0.61100452  0.01582434    -0.14100
S537        S  0.25772810  0.66075446  0.08600316    -0.31000
H538        H  0.21669635  0.63262977  0.02827024     0.10800
S539        S  0.24728228  0.57561898  0.95663123    -0.28100
H540        H  0.28795874  0.60499583  0.01227619     0.08000
H541        H  0.38929523  0.71702327  0.09155946     0.26500
H542        H  0.23266630  0.66021150  0.07874782     0.21300
H543        H  0.23497518  0.58423253  0.92929846     0.26600
H544        H  0.25822289  0.58826641  0.09026758     0.15400
C545        C  0.51677254  0.85701310  0.01224102    -0.11900
C546        C  0.49556488  0.85138496  0.03796547     0.14700
C547        C  0.98557799  0.87015692  0.04127679     0.01600
C548        C  0.99669274  0.89378431  0.01869545    -0.16200
C549        C  0.01859826  0.90006550  0.99378096    -0.11000
C550        C  0.02822828  0.88090810  0.98996604     0.08300
C551        C  0.48522194  0.82663445  0.06237495     0.09300
S552        S  0.95995173  0.86619047  0.07545703    -0.25400
H553        H  0.98927115  0.90828343  0.02250765     0.19600
S554        S  0.05468337  0.88530379  0.95700593    -0.31100
H555        H  0.52448228  0.84265927  0.00955602     0.09900
C556        C  0.45774391  0.80465271  0.06041776     0.03100
C557        C  0.44794074  0.78379791  0.08785271    -0.13400
C558        C  0.46532062  0.78383272  0.11650184    -0.09000
C559        C  0.49354075  0.80485790  0.11629418     0.06600
C560        C  0.50297167  0.82607269  0.08968223    -0.14100
S561        S  0.43524409  0.80317380  0.02294671    -0.31000
H562        H  0.42656009  0.76751041  0.08717271     0.10800
S563        S  0.01819909  0.80718252  0.15077010    -0.28100
H564        H  0.02421704  0.84278987  0.09093266     0.08000
H565        H  0.04646859  0.89754193  0.92903918     0.26500
H566        H  0.41202096  0.77809429  0.03375853     0.21300
H567        H  0.51695423  0.78254755  0.13852401     0.26600
H568        H  0.46826973  0.85407487  0.10341490     0.15400
C569        C  0.02484726  0.64180641  0.05591996    -0.11900
C570        C  0.49681770  0.63290498  0.04972298     0.14700
C571        C  0.48254308  0.61306053  0.02142757     0.01600
C572        C  0.99645223  0.60234469  0.00053562    -0.16200
C573        C  0.02451102  0.61097141  0.00690806    -0.11000
C574        C  0.03864021  0.63074051  0.03554458     0.08300
C575        C  0.48290110  0.64348526  0.07500794     0.09300
S576        S  0.44647459  0.60005560  0.01107552    -0.25400
H577        H  0.48518443  0.58705743  0.97906526     0.19600
S578        S  0.07337128  0.64092772  0.05007126    -0.31100
H579        H  0.03573627  0.65658810  0.07808534     0.09900
C580        C  0.46602080  0.62742703  0.10496614     0.03100
C581        C  0.45463249  0.63882647  0.12960855    -0.13400
C582        C  0.46000990  0.66615825  0.12532806    -0.09000
C583        C  0.47617592  0.68184998  0.09440264     0.06600
C584        C  0.48770339  0.67050271  0.07001694    -0.14100
S585        S  0.46011051  0.59287603  0.11293818    -0.31000
H586        H  0.44232764  0.62674579  0.15320914     0.10800
S587        S  0.48226553  0.71611712  0.08387007    -0.28100
H588        H  0.00044162  0.68278986  0.04679256     0.08000
H589        H  0.06936901  0.61391748  0.04884090     0.26500
H590        H  0.44348627  0.58718320  0.14508194     0.21300
H591        H  0.45624725  0.71121751  0.09631194     0.26600
H592        H  0.44523769  0.62331494  0.02370518     0.15400
C593        C  0.19634195  0.77367845  0.84074420    -0.11900
C594        C  0.20152600  0.75180159  0.83423029     0.14700
C595        C  0.21856855  0.75364043  0.80369562     0.01600
C596        C  0.22983977  0.77705099  0.78052176    -0.16200
C597        C  0.22390586  0.79854867  0.78616744    -0.11000
C598        C  0.20752103  0.79705836  0.81740755     0.08300
C599        C  0.18778843  0.72686122  0.85859357     0.09300
S600        S  0.22587929  0.72643405  0.79168937    -0.25400
H601        H  0.24225376  0.77780735  0.75666670     0.19600
S602        S  0.20074103  0.82452042  0.82972647    -0.31100
H603        H  0.18350235  0.77252798  0.86427410     0.09900
C604        C  0.20255645  0.72016689  0.88467993     0.03100
C605        C  0.18861794  0.69543082  0.90536866    -0.13400
C606        C  0.16008405  0.67711600  0.90071358    -0.09000
C607        C  0.14546661  0.68411563  0.87435525     0.06600
C608        C  0.15933139  0.70898217  0.85432344    -0.14100
S609        S  0.23906025  0.74329634  0.89193024    -0.31000
H610        H  0.20002089  0.69034138  0.92535949     0.10800
S611        S  0.10968861  0.66149485  0.86246857    -0.28100
H612        H  0.14801058  0.71393447  0.83394361     0.08000
H613        H  0.22623262  0.84610968  0.81678284     0.26500
H614        H  0.24272234  0.72760777  0.91990716     0.21300
H615        H  0.11225970  0.63763879  0.86029739     0.26600
H616        H  0.20079248  0.70432483  0.80464050     0.15400
C617        C  0.38155558  0.95671022  0.80846838    -0.11900
C618        C  0.38145368  0.93960775  0.83736292     0.14700
C619        C  0.35944844  0.91203919  0.83955945     0.01600
C620        C  0.33857388  0.90199280  0.81229000    -0.16200
C621        C  0.33874728  0.91898621  0.78304682    -0.11000
C622        C  0.36076998  0.94668424  0.78111044     0.08300
C623        C  0.40570012  0.95053936  0.86280912     0.09300
S624        S  0.35697419  0.88858787  0.87619652    -0.25400
H625        H  0.32186615  0.88078327  0.81417342     0.19600
S626        S  0.36477851  0.96972577  0.74305515    -0.31100
H627        H  0.39862160  0.97772752  0.80632011     0.09900
C628        C  0.42583436  0.94245894  0.85885693     0.03100
C629        C  0.44886248  0.95378443  0.88273546    -0.13400
C630        C  0.45260479  0.97345646  0.91032124    -0.09000
C631        C  0.43205719  0.98115199  0.91457205     0.06600
C632        C  0.40907204  0.96987116  0.89054218    -0.14100
S633        S  0.42298000  0.91882352  0.82205043    -0.31000
H634        H  0.46462541  0.94805130  0.87885765     0.10800
S635        S  0.43343600  0.00452952  0.95061611    -0.28100
H636        H  0.39351481  0.97599317  0.89369794     0.08000
H637        H  0.35630963  0.94934964  0.71494377     0.26500
H638        H  0.44712449  0.91796193  0.83092298     0.21300
H639        H  0.44583494  0.99578894  0.97765209     0.26600
H640        H  0.37125165  0.90891421  0.90363824     0.15400
C641        C  0.15386941  0.93193634  0.86880190    -0.11900
C642        C  0.18209566  0.94138796  0.87387882     0.14700
C643        C  0.19715102  0.96296038  0.89979028     0.01600
C644        C  0.18398836  0.97529999  0.91866212    -0.16200
C645        C  0.15589408  0.96646895  0.91269776    -0.11000
C646        C  0.14067953  0.94424434  0.88746082     0.08300
C647        C  0.19581206  0.93141206  0.84738911     0.09300
S648        S  0.23329694  0.97599932  0.90948450    -0.25400
H649        H  0.19589040  0.49211334  0.93801687     0.19600
S650        S  0.10522288  0.93221889  0.87451500    -0.31100
H651        H  0.14236273  0.91593274  0.84821387     0.09900
C652        C  0.18785221  0.90317466  0.84411397     0.03100
C653        C  0.19924159  0.89463730  0.81540390    -0.13400
C654        C  0.21854359  0.91371353  0.78985070    -0.09000
C655        C  0.22647043  0.94205831  0.79350059     0.06600
C656        C  0.21524925  0.95048882  0.82223798    -0.14100
S657        S  0.16352635  0.87806088  0.87676478    -0.31000
H658        H  0.19305481  0.87298253  0.81281205     0.10800
S659        S  0.24908427  0.96840406  0.76094265    -0.28100
H660        H  0.22082416  0.97207847  0.82400405     0.08000
H661        H  0.10923442  0.95898376  0.86893337     0.26500
H662        H  0.16328056  0.85472656  0.86117262     0.21300
H663        H  0.23637393  0.95232969  0.72883899     0.26600
H664        H  0.23330027  0.95140622  0.90052958     0.15400
C665        C  0.22161790  0.94199087  0.56707963    -0.11900
C666        C  0.19399503  0.93575367  0.57004763     0.14700
C667        C  0.17690905  0.91674167  0.59770961     0.01600
C668        C  0.18796188  0.90517624  0.62236792    -0.16200
C669        C  0.21599754  0.91260902  0.62079398    -0.11000
C670        C  0.23273150  0.93057884  0.59190543     0.08300
C671        C  0.18374385  0.94980176  0.54455537     0.09300
S672        S  0.14117570  0.90728056  0.60414131    -0.25400
H673        H  0.17486494  0.89132084  0.64416773     0.19600
S674        S  0.26815492  0.93921408  0.58454682    -0.31100
H675        H  0.23464771  0.95600035  0.54536545     0.09900
C676        C  0.19373222  0.97848904  0.54724095     0.03100
C677        C  0.18214379  0.99071087  0.52463996    -0.13400
C678        C  0.16062086  0.97496463  0.49923541    -0.09000
C679        C  0.15173387  0.94641865  0.49524436     0.06600
C680        C  0.16315057  0.93418039  0.51813585    -0.14100
S681        S  0.22003323  0.99934577  0.58118587    -0.31000
H682        H  0.18912694  0.51251028  0.52805138     0.10800
S683        S  0.12652549  0.92453790  0.46098760    -0.28100
H684        H  0.15586492  0.91224044  0.51545150     0.08000
H685        H  0.26411280  0.91315422  0.59533523     0.26500
H686        H  0.22229769  0.52488383  0.57159820     0.21300
H687        H  0.13541925  0.94515910  0.43321250     0.26600
H688        H  0.14453233  0.93327620  0.59468162     0.15400
C689        C  0.35829896  0.91342786  0.56388720    -0.11900
C690        C  0.37919367  0.94121258  0.56690750     0.14700
C691        C  0.37655183  0.95828354  0.59403735     0.01600
C692        C  0.35380628  0.94701706  0.61829153    -0.16200
C693        C  0.33377249  0.91881686  0.61680389    -0.11000
C694        C  0.33560235  0.90212026  0.58829158     0.08300
C695        C  0.40353709  0.95175893  0.54165004     0.09300
S696        S  0.40205623  0.99425080  0.60040051    -0.25400
H697        H  0.35257449  0.96009086  0.63983524     0.19600
S698        S  0.30936843  0.86654104  0.58091328    -0.31100
H699        H  0.35977487  0.90044588  0.54242653     0.09900
C700        C  0.42236191  0.94185589  0.54409369     0.03100
C701        C  0.44605609  0.95361116  0.52141319    -0.13400
C702        C  0.45153524  0.97517930  0.49620496    -0.09000
C703        C  0.43180197  0.98400979  0.49250876     0.06600
C704        C  0.40826033  0.97241547  0.51542610    -0.14100
S705        S  0.41731245  0.91554678  0.57787553    -0.31000
H706        H  0.46104470  0.94679701  0.52468754     0.08200
S707        S  0.43490651  0.50936881  0.45858582    -0.28100
H708        H  0.39348720  0.97959949  0.51290312     0.08000
H709        H  0.28710809  0.87022356  0.59170141     0.26500
H710        H  0.43913836  0.91166057  0.56560877     0.21300
H711        H  0.44734766  0.50116760  0.43085183     0.26600
H712        H  0.42507256  0.99130341  0.59175949     0.15400
C713        C  0.01426853  0.86228987  0.38955817    -0.11900
C714        C  0.49931627  0.86156436  0.35737673     0.14700
C715        C  0.49602550  0.88459853  0.34940699     0.01600
C716        C  0.50714574  0.90735705  0.37376890    -0.16200
C717        C  0.02266992  0.90847848  0.40545326    -0.11000
C718        C  0.02623130  0.88558262  0.41341929     0.08300
C719        C  0.48727450  0.83660448  0.33264894     0.09300
S720        S  0.47876368  0.88671027  0.30780913    -0.25400
H721        H  0.50460524  0.92493719  0.36698421     0.19600
S722        S  0.04495964  0.88540355  0.45465350    -0.31100
H723        H  0.01658214  0.84452562  0.39583419     0.09900
C724        C  0.50419179  0.83006407  0.31045811     0.03100
C725        C  0.49202999  0.80696227  0.28646035    -0.13400
C726        C  0.46311051  0.79007151  0.28362749    -0.09000
C727        C  0.44622452  0.79647642  0.30660237     0.06600
C728        C  0.45844586  0.81967178  0.33040021    -0.14100
S729        S  0.04132731  0.85196149  0.31126507    -0.31000
H730        H  0.50521919  0.80247808  0.26899768     0.10800
S731        S  0.40908225  0.77553696  0.30800724    -0.28100
H732        H  0.44534050  0.82450208  0.34758271     0.08000
H733        H  0.04309324  0.85963042  0.44799339     0.26500
H734        H  0.04716041  0.83880840  0.28181936     0.21300
H735        H  0.40885403  0.75017421  0.30645031     0.26600
H736        H  0.48700112  0.87173623  0.28446658     0.15400
C737        C  0.48133318  0.62064276  0.40212813    -0.11900
C738        C  0.49637409  0.63925913  0.37322228     0.14700
C739        C  0.02464885  0.64773398  0.36884584     0.01600
C740        C  0.03691640  0.63681581  0.39228286    -0.16200
C741        C  0.02157938  0.61687069  0.41971219    -0.11000
C742        C  0.49363708  0.60953500  0.42553826     0.08300
C743        C  0.48223484  0.64934443  0.34765855     0.09300
S744        S  0.04595890  0.67127304  0.33256357    -0.25400
H745        H  0.05836091  0.64281394  0.38736707     0.19600
S746        S  0.47286587  0.58688980  0.46283475    -0.31100
H747        H  0.45981125  0.61463439  0.40632219     0.09900
C748        C  0.46215576  0.63147723  0.32174670     0.03100
C749        C  0.45100757  0.64227781  0.29586746    -0.13400
C750        C  0.45973597  0.67070750  0.29482911    -0.09000
C751        C  0.47927594  0.68839263  0.32170423     0.06600
C752        C  0.49029991  0.67755255  0.34759608    -0.14100
S753        S  0.45207036  0.59523035  0.31988672    -0.31000
H754        H  0.43624483  0.62865990  0.27524557     0.10800
S755        S  0.99073493  0.72483114  0.32494830    -0.28100
H756        H  0.00558693  0.69129336  0.36766474     0.08000
H757        H  0.49501257  0.59460174  0.48788078     0.26500
H758        H  0.43326468  0.58797836  0.28998059     0.21300
H759        H  0.46483929  0.72196514  0.31609878     0.26600
H760        H  0.02512786  0.66173823  0.30509463     0.15400
C761        C  0.19363284  0.77989189  0.56165883    -0.11900
C762        C  0.19973052  0.75828223  0.56313533     0.14700
C763        C  0.21812708  0.75898996  0.59096451     0.01600
C764        C  0.22938385  0.78070551  0.61699416    -0.16200
C765        C  0.22219164  0.80156174  0.61677752    -0.11000
C766        C  0.20470073  0.80150077  0.58795290     0.08300
C767        C  0.18588390  0.73475937  0.53639921     0.09300
S768        S  0.22714109  0.73220433  0.59591828    -0.25400
H769        H  0.24285589  0.78055443  0.63878414     0.19600
S770        S  0.19633993  0.82871094  0.58252153    -0.31100
H771        H  0.17997105  0.77979125  0.53996909     0.09900
C772        C  0.15722461  0.71619125  0.53861518     0.03100
C773        C  0.14527172  0.69254470  0.51586044    -0.13400
C774        C  0.16123526  0.68669561  0.49079581    -0.09000
C775        C  0.18967018  0.70638418  0.48679230     0.06600
C776        C  0.20167778  0.72997993  0.50982283    -0.14100
S777        S  0.13605230  0.72119102  0.57267065    -0.31000
H778        H  0.12354124  0.67770961  0.51934865     0.10800
S779        S  0.21166338  0.70292792  0.45268406    -0.28100
H780        H  0.22360112  0.74455844  0.50742180     0.08000
H781        H  0.22217009  0.85008745  0.59487227     0.26500
H782        H  0.11033662  0.70044345  0.55905532     0.21300
H783        H  0.19079854  0.68985092  0.42550430     0.26600
H784        H  0.20123101  0.71017500  0.58518947     0.15400
C785        C  0.26127896  0.61207786  0.36527658    -0.11900
C786        C  0.27912695  0.64060052  0.36939111     0.14700
C787        C  0.27233700  0.65540491  0.39545519     0.01600
C788        C  0.24757157  0.64157134  0.41584431    -0.16200
C789        C  0.22930660  0.61300872  0.41128077    -0.11000
C790        C  0.23654060  0.59820123  0.38549215     0.08300
C791        C  0.30329122  0.65432784  0.34371392     0.09300
S792        S  0.29432575  0.69192438  0.40389759    -0.25400
H793        H  0.24252708  0.65328027  0.43542456     0.19600
S794        S  0.21439633  0.56215256  0.37433542    -0.31100
H795        H  0.26614192  0.60070558  0.34487104     0.09900
C796        C  0.32503957  0.64832357  0.34504144     0.03100
C797        C  0.34583936  0.65925398  0.31751855    -0.13400
C798        C  0.34558996  0.67632666  0.28861962    -0.09000
C799        C  0.32413062  0.68298705  0.28820219     0.06600
C800        C  0.30325228  0.67182905  0.31547104    -0.14100
S801        S  0.32625899  0.62665308  0.38181177    -0.31000
H802        H  0.36226404  0.65423960  0.31826458     0.10800
S803        S  0.32073538  0.70338463  0.25167240    -0.28100
H804        H  0.28637185  0.67618425  0.31404344     0.08000
H805        H  0.19071891  0.56471368  0.36937536     0.26500
H806        H  0.35138028  0.62848175  0.37096834     0.21300
H807        H  0.34479562  0.72766017  0.26275988     0.26600
H808        H  0.31930917  0.69277708  0.39495892     0.15400
C809        C  0.70242654  0.09997978  0.43175597     0.79700
N810        N  0.68934651  0.07265173  0.44112636    -0.78600
C811        C  0.66319017  0.06002240  0.45501070     0.82200
N812        N  0.65019914  0.07491235  0.45991528    -0.78500
C813        C  0.66349199  0.10246587  0.45260074     0.82300
N814        N  0.68953304  0.11492172  0.43832871    -0.80200
C815        C  0.64783405  0.15875783  0.47305515     0.79700
N816        N  0.61997826  0.14501276  0.46757839    -0.78600
C817        C  0.60643357  0.11790572  0.45771855     0.82200
N818        N  0.62079593  0.10436048  0.45331477    -0.78500
C819        C  0.64865649  0.11789371  0.45754562     0.82300
N820        N  0.66214656  0.14503822  0.46778252    -0.80200
C821        C  0.53490404  0.10253014  0.43809089     0.79700
N822        N  0.52048835  0.07466014  0.44399728    -0.78600
C823        C  0.53392730  0.06095321  0.45450943     0.82200
N824        N  0.56183056  0.07509812  0.45842106    -0.78500
C825        C  0.57626883  0.10288935  0.45343862     0.82300
N826        N  0.56277762  0.11647522  0.44321049    -0.80200
C827        C  0.53574513  0.43441943  0.42804879     0.79700
N828        N  0.52128109  0.44774475  0.43519849    -0.78600
C829        C  0.53400994  0.47339934  0.45082135     0.82200
N830        N  0.56137524  0.48594234  0.45870781    -0.78500
C831        C  0.57593676  0.47273541  0.45270835     0.82300
N832        N  0.56313505  0.44697716  0.43715641    -0.80200
C833        C  0.97899332  0.48935875  0.47741059     0.79700
N834        N  0.99238569  0.47504171  0.46975864    -0.78600
C835        C  0.51895756  0.48844811  0.45747349     0.82200
N836        N  0.53226247  0.01632206  0.45312749    -0.78500
C837        C  0.51896210  0.03076121  0.45961299     0.82300
N838        N  0.99242729  0.01727513  0.47210098    -0.80200
C839        C  0.64673394  0.48867157  0.48035347     0.79700
N840        N  0.61904813  0.47433915  0.47313142    -0.78600
C841        C  0.60585532  0.48768097  0.46025088     0.82200
N842        N  0.62030932  0.01551795  0.45532965    -0.78500
C843        C  0.64794582  0.02996588  0.46160351     0.82300
N844        N  0.66108350  0.01650403  0.47411587    -0.80200
Fe845      Fe  0.71746380  0.35515857  0.70488650     1.65800
Fe846      Fe  0.77734824  0.41799186  0.70370227     1.73200
Fe847      Fe  0.78040324  0.35803429  0.70189103     1.54400
O848        O  0.75712602  0.32962405  0.74292144    -0.82200
O849        O  0.80339331  0.42202059  0.66016361    -0.80500
O850        O  0.71685592  0.32887051  0.74657471    -0.84700
O851        O  0.71542535  0.32853272  0.66274960    -0.79500
O852        O  0.80734306  0.38260699  0.74356651    -0.81300
O853        O  0.75109365  0.41950521  0.66408029    -0.84000
C854        C  0.73205409  0.32186890  0.64803963     0.96700
C855        C  0.73331645  0.32065239  0.75726629     1.04200
O856        O  0.75840520  0.37705564  0.70360752    -1.13000
O857        O  0.75368183  0.41922582  0.74728029    -0.75500
O858        O  0.71405160  0.37923361  0.74662290    -0.78900
O859        O  0.75661921  0.33128516  0.65971390    -0.79600
C860        C  0.72946173  0.40342884  0.75954401     0.95600
O861        O  0.71271765  0.37839498  0.66335775    -0.77600
O862        O  0.80657005  0.42220676  0.74281103    -0.82800
C863        C  0.81300353  0.40730411  0.64724507     0.98300
C864        C  0.81613178  0.40721456  0.75490708     1.04200
O865        O  0.80646736  0.38367553  0.66044192    -0.78400
C866        C  0.72736798  0.40283185  0.65097904     1.02500
C867        C  0.53758644  0.09773030  0.98483334     0.79700
N868        N  0.52237338  0.07031796  0.97616462    -0.78600
C869        C  0.53441940  0.05710681  0.95931287     0.82200
N870        N  0.56181512  0.07132693  0.95128294    -0.78500
C871        C  0.57703253  0.09887613  0.95814832     0.82300
N872        N  0.56488175  0.11210436  0.97497204    -0.80200
C873        C  0.97913427  0.48672541  0.93143287     0.79700
N874        N  0.99184730  0.47178563  0.93914665    -0.78600
C875        C  0.51790675  0.48437303  0.95318407     0.82200
N876        N  0.53145447  0.01206051  0.95911570    -0.78500
C877        C  0.51885180  0.02711540  0.95265500     0.82300
N878        N  0.99272686  0.01448087  0.93850952    -0.80200
C879        C  0.53279332  0.42804320  0.97643377     0.79700
N880        N  0.51872963  0.44189750  0.97019182    -0.78600
C881        C  0.53247164  0.46886797  0.95937899     0.82200
N882        N  0.56027809  0.48201067  0.95497901    -0.78500
C883        C  0.57434605  0.46827078  0.96022045     0.82300
N884        N  0.56062966  0.44141834  0.97118520    -0.80200
C885        C  0.64359413  0.48161793  0.93151545     0.79700
N886        N  0.61638600  0.46819073  0.94097005    -0.78600
C887        C  0.60415205  0.48247273  0.95349578     0.82200
N888        N  0.61926055  0.01033021  0.95704779    -0.78500
C889        C  0.64675137  0.02387068  0.94966798     0.82300
N890        N  0.65893412  0.00952661  0.93672499    -0.80200
C891        C  0.70222063  0.09449255  0.97508302     0.79700
N892        N  0.68856511  0.06672712  0.96846446    -0.78600
C893        C  0.66249015  0.05401007  0.95434653     0.82200
N894        N  0.64983932  0.06899669  0.94752171    -0.78500
C895        C  0.66336378  0.09674519  0.95299531     0.82300
N896        N  0.68949533  0.10944655  0.96706473    -0.80200
C897        C  0.64670229  0.15071062  0.92249434     0.79700
N898        N  0.66120512  0.13746997  0.93006167    -0.78600
C899        C  0.64853582  0.11209201  0.94649965     0.82200
N900        N  0.62126766  0.09990358  0.95517009    -0.78500
C901        C  0.60685019  0.11330296  0.94944759     0.82300
N902        N  0.61963159  0.13874397  0.93314663    -0.80200
Fe903      Fe  0.90168894  0.16787615  0.20840978     1.65800
Fe904      Fe  0.90342480  0.23022618  0.20043667     1.73200
Fe905      Fe  0.96383362  0.22826930  0.20619600     1.54400
O906        O  0.96586138  0.20433089  0.24907308    -0.82200
O907        O  0.92811976  0.25431586  0.15662109    -0.80500
O908        O  0.92500843  0.16590339  0.25211123    -0.84700
O909        O  0.92615219  0.16271150  0.16889156    -0.79500
O910        O  0.96645502  0.25629661  0.24653577    -0.81300
O911        O  0.87565966  0.20372242  0.16050038    -0.84000
C912        C  0.94997988  0.17798692  0.15478430     0.96700
C913        C  0.94951290  0.18112588  0.26383594     1.04200
O914        O  0.92295712  0.20878842  0.20509013    -1.13000
O915        O  0.87617159  0.20880067  0.24357503    -0.75500
O916        O  0.87464950  0.16818161  0.24819681    -0.78900
O917        O  0.96586121  0.20268258  0.16564020    -0.79600
C918        C  0.86675594  0.18505779  0.25835472     0.95600
O919        O  0.87533172  0.16379018  0.16506729    -0.77600
O920        O  0.92863099  0.25983338  0.23976956    -0.82800
C921        C  0.95309676  0.26306069  0.14721799     0.98300
C922        C  0.95182494  0.26715274  0.25529248     1.04200
O923        O  0.96807760  0.25511797  0.16360458    -0.78400
C924        C  0.86708687  0.17898259  0.14985172     1.02500
C925        C  0.81928435  0.17022597  0.06750186    -0.11900
C926        C  0.80043515  0.14170356  0.06895692     0.14700
C927        C  0.80522667  0.12526737  0.09470480     0.01600
C928        C  0.82773826  0.13783456  0.11942461    -0.16200
C929        C  0.84576992  0.16668710  0.11957732    -0.11000
C930        C  0.84190253  0.18278713  0.09201804     0.08300
C931        C  0.77570287  0.13006446  0.04403133     0.09300
S932        S  0.78291341  0.08832811  0.09846110    -0.25400
H933        H  0.83044636  0.12495893  0.13981190     0.19600
S934        S  0.86549405  0.21919080  0.08551331    -0.31100
H935        H  0.81626473  0.18286322  0.04703624     0.09900
C936        C  0.75538389  0.13792116  0.04832888     0.03100
C937        C  0.73245470  0.12692005  0.02424871    -0.13400
C938        C  0.72875697  0.10755699  0.99628144    -0.09000
C939        C  0.74917615  0.09963467  0.99206513     0.06600
C940        C  0.77235646  0.11100410  0.01582543    -0.14100
S941        S  0.75772804  0.16075459  0.08600357    -0.31000
H942        H  0.71669666  0.13263041  0.02827005     0.10800
S943        S  0.74728207  0.07561878  0.95663207    -0.28100
H944        H  0.78795820  0.10499514  0.01227760     0.08000
H945        H  0.88929556  0.21702190  0.09155946     0.26500
H946        H  0.73266519  0.16020990  0.07875000     0.21300
H947        H  0.73497545  0.08423265  0.92929902     0.26600
H948        H  0.75822184  0.08826620  0.09026854     0.15400
C949        C  0.01677100  0.35701209  0.01223846    -0.11900
C950        C  0.99556396  0.35138433  0.03796381     0.14700
C951        C  0.48557808  0.37015629  0.04127679     0.01600
C952        C  0.49669292  0.39378382  0.01869575    -0.16200
C953        C  0.51859873  0.40006543  0.99378169    -0.11000
C954        C  0.52822900  0.38090820  0.98996681     0.08300
C955        C  0.98522077  0.32663355  0.06237286     0.09300
S956        S  0.45995106  0.36618914  0.07545621    -0.25400
H957        H  0.48927100  0.40828284  0.02250786     0.19600
S958        S  0.55468427  0.38530420  0.95700685    -0.31100
H959        H  0.02448012  0.34265771  0.00955244     0.09900
C960        C  0.95774200  0.30465308  0.06041780     0.03100
C961        C  0.94793899  0.28379837  0.08785284    -0.13400
C962        C  0.96531969  0.28383180  0.11649979    -0.09000
C963        C  0.99354050  0.30485533  0.11628934     0.06600
C964        C  0.00297127  0.32607025  0.08967760    -0.14100
S965        S  0.93524109  0.30317560  0.02294918    -0.31000
H966        H  0.92655779  0.26751196  0.08717463     0.10800
S967        S  0.51819831  0.30718413  0.15077381    -0.28100
H968        H  0.52421704  0.34279067  0.09093479     0.08000
H969        H  0.54646936  0.39754218  0.92904005     0.26500
H970        H  0.91201698  0.27809772  0.03376359     0.21300
H971        H  0.01695150  0.28254104  0.13851395     0.26600
H972        H  0.96827222  0.35407599  0.10341577     0.15400
C973        C  0.52484725  0.14180542  0.05592132    -0.11900
C974        C  0.99681718  0.13290502  0.04972244     0.14700
C975        C  0.98254275  0.11306073  0.02142678     0.01600
C976        C  0.49645247  0.10234506  0.00053540    -0.16200
C977        C  0.52451106  0.11097122  0.00690832    -0.11000
C978        C  0.53864012  0.13073957  0.03554568     0.08300
C979        C  0.98290042  0.14348521  0.07500727     0.09300
S980        S  0.94647441  0.10005609  0.01107406    -0.25400
H981        H  0.98518428  0.08705767  0.97906451     0.19600
S982        S  0.57337082  0.14092578  0.05007302    -0.31100
H983        H  0.53573619  0.15658661  0.07808735     0.09900
C984        C  0.96601955  0.12742671  0.10496489     0.03100
C985        C  0.95463129  0.13882614  0.12960741    -0.13400
C986        C  0.96000925  0.16615814  0.12532759    -0.09000
C987        C  0.97617572  0.18185011  0.09440259     0.06600
C988        C  0.98770316  0.17050286  0.07001685    -0.14100
S989        S  0.96010859  0.09287539  0.11293620    -0.31000
H990        H  0.94232608  0.12674523  0.15320769     0.10800
S991        S  0.98226598  0.21611757  0.08387068    -0.28100
H992        H  0.50044144  0.18278925  0.04679304     0.08000
H993        H  0.56936809  0.11391539  0.04884133     0.26500
H994        H  0.94348274  0.08718180  0.14507841     0.21300
H995        H  0.95624764  0.21121814  0.09631200     0.26600
H996        H  0.94523771  0.12331562  0.02370336     0.15400
C997        C  0.69634218  0.27367964  0.84074503    -0.11900
C998        C  0.70152618  0.25180267  0.83423161     0.14700
C999        C  0.71856874  0.25364123  0.80369709     0.01600
C1000       C  0.72984007  0.27705160  0.78052277    -0.16200
C1001       C  0.72390617  0.29854936  0.78616797    -0.11000
C1002       C  0.70752138  0.29705937  0.81740796     0.08300
C1003       C  0.68778849  0.22686243  0.85859519     0.09300
S1004       S  0.72587937  0.22643468  0.79169145    -0.25400
H1005       H  0.74225395  0.27780772  0.75666806     0.19600
S1006       S  0.70074156  0.32452165  0.82972626    -0.31100
H1007       H  0.68350266  0.27252943  0.86427468     0.09900
C1008       C  0.70255650  0.22016789  0.88468129     0.03100
C1009       C  0.68861799  0.19543168  0.90536974    -0.13400
C1010       C  0.66008408  0.17711690  0.90071467    -0.09000
C1011       C  0.64546659  0.18411687  0.87435685     0.06600
C1012       C  0.65933139  0.20898355  0.85432527    -0.14100
S1013       S  0.73906031  0.24329725  0.89193164    -0.31000
H1014       H  0.70002094  0.19034207  0.92536028     0.10800
S1015       S  0.60968847  0.16149641  0.86247045    -0.28100
H1016       H  0.64801057  0.21393601  0.83394572     0.08000
H1017       H  0.72623314  0.34611073  0.81678227     0.26500
H1018       H  0.74272258  0.22760806  0.91990742     0.21300
H1019       H  0.61225940  0.13764029  0.86029825     0.26600
H1020       H  0.70079249  0.20432561  0.80464265     0.15400
C1021       C  0.88155536  0.45671044  0.80846941    -0.11900
C1022       C  0.88145348  0.43960756  0.83736341     0.14700
C1023       C  0.85944840  0.41203891  0.83955930     0.01600
C1024       C  0.83857394  0.40199270  0.81228971    -0.16200
C1025       C  0.83874732  0.41898651  0.78304704    -0.11000
C1026       C  0.86076982  0.44668466  0.78111136     0.08300
C1027       C  0.90569982  0.45053900  0.86280974     0.09300
S1028       S  0.85697418  0.38858716  0.87619574    -0.25400
H1029       H  0.82186643  0.38078320  0.81417262     0.19600
S1030       S  0.86477822  0.46972671  0.74305684    -0.31100
H1031       H  0.89862114  0.47772770  0.80632168     0.09900
C1032       C  0.92583433  0.44245899  0.85885703     0.03100
C1033       C  0.94886248  0.45378453  0.88273549    -0.13400
C1034       C  0.95260453  0.47345617  0.91032174    -0.09000
C1035       C  0.93205659  0.48115117  0.91457318     0.06600
C1036       C  0.90907141  0.46987034  0.89054335    -0.14100
S1037       S  0.92298022  0.41882398  0.82205006    -0.31000
H1038       H  0.96462565  0.44805174  0.87885729     0.10800
S1039       S  0.93343500  0.50452799  0.95061806    -0.28100
H1040       H  0.89351400  0.47599197  0.89369953     0.08000
H1041       H  0.85630987  0.44935109  0.71494480     0.26500
H1042       H  0.94712558  0.41796364  0.83092118     0.21300
H1043       H  0.94583456  0.49578760  0.97765336     0.26600
H1044       H  0.87125127  0.40891318  0.90363798     0.15400
C1045       C  0.65386976  0.43193675  0.86880159    -0.11900
C1046       C  0.68209605  0.44138844  0.87387835     0.14700
C1047       C  0.69715144  0.46296088  0.89978977     0.01600
C1048       C  0.68398879  0.47530046  0.91866177    -0.16200
C1049       C  0.65589445  0.46646929  0.91269763    -0.11000
C1050       C  0.64067987  0.44424466  0.88746073     0.08300
C1051       C  0.69581241  0.43141251  0.84738860     0.09300
S1052       S  0.73329738  0.47599983  0.90948389    -0.25400
H1053       H  0.69589032  0.99211320  0.93801728     0.19600
S1054       S  0.60522311  0.43221901  0.87451532    -0.31100
H1055       H  0.64236305  0.41593315  0.84821362     0.09900
C1056       C  0.68785252  0.40317509  0.84411348     0.03100
C1057       C  0.69924183  0.39463772  0.81540337    -0.13400
C1058       C  0.71854382  0.41371387  0.78985012    -0.09000
C1059       C  0.72647069  0.44205867  0.79349998     0.06600
C1060       C  0.71524958  0.45048922  0.82223742    -0.14100
S1061       S  0.66352674  0.37806136  0.87676440    -0.31000
H1062       H  0.69305497  0.37298285  0.81281153     0.10800
S1063       S  0.74908445  0.46840435  0.76094192    -0.28100
H1064       H  0.72082453  0.47207890  0.82400347     0.08000
H1065       H  0.60923443  0.45898382  0.86893388     0.26500
H1066       H  0.66328071  0.35472698  0.86117204     0.21300
H1067       H  0.73637397  0.45232995  0.72883833     0.26600
H1068       H  0.73330064  0.45140668  0.90052910     0.15400
C1069       C  0.72161826  0.44199090  0.56707890    -0.11900
C1070       C  0.69399549  0.43575401  0.57004719     0.14700
C1071       C  0.67690956  0.41674229  0.59770947     0.01600
C1072       C  0.68796236  0.40517682  0.62236774    -0.16200
C1073       C  0.71599790  0.41260926  0.62079351    -0.11000
C1074       C  0.73273180  0.43057879  0.59190469     0.08300
C1075       C  0.68374440  0.44980210  0.54455485     0.09300
S1076       S  0.64117636  0.40728163  0.60414154    -0.25400
H1077       H  0.67486542  0.39132158  0.64416786     0.19600
S1078       S  0.76815504  0.43921355  0.58454568    -0.31100
H1079       H  0.73464799  0.45600013  0.54536455     0.09900
C1080       C  0.69373302  0.47848943  0.54724010     0.03100
C1081       C  0.68214467  0.49071130  0.52463902    -0.13400
C1082       C  0.66062162  0.47496502  0.49923465    -0.09000
C1083       C  0.65173450  0.44641900  0.49524374     0.06600
C1084       C  0.66315105  0.43418071  0.51813541    -0.14100
S1085       S  0.72003423  0.49934622  0.58118475    -0.31000
H1086       H  0.68912706  0.01251005  0.52805059     0.10800
S1087       S  0.62652620  0.42453829  0.46098690    -0.28100
H1088       H  0.65586526  0.41224070  0.51545124     0.08000
H1089       H  0.76411268  0.41315367  0.59533439     0.26500
H1090       H  0.72230077  0.02488414  0.57159331     0.21300
H1091       H  0.63541996  0.44515953  0.43321185     0.26600
H1092       H  0.64453321  0.43327730  0.59468148     0.15400
C1093       C  0.85829887  0.41342722  0.56388692    -0.11900
C1094       C  0.87919354  0.44121197  0.56690673     0.14700
C1095       C  0.87655177  0.45828316  0.59403627     0.01600
C1096       C  0.85380635  0.44701683  0.61829061    -0.16200
C1097       C  0.83377261  0.41881662  0.61680348    -0.11000
C1098       C  0.83560235  0.40211979  0.58829141     0.08300
C1099       C  0.90353683  0.45175814  0.54164910     0.09300
S1100       S  0.90205611  0.49425051  0.60039874    -0.25400
H1101       H  0.85257462  0.46009087  0.63983421     0.19600
S1102       S  0.80936837  0.36654054  0.58091355    -0.31100
H1103       H  0.85977473  0.40044502  0.54242638     0.09900
C1104       C  0.92236178  0.44185528  0.54409299     0.03100
C1105       C  0.94605590  0.45361051  0.52141241    -0.13400
C1106       C  0.95153489  0.47517845  0.49620392    -0.09000
C1107       C  0.93180148  0.48400873  0.49250745     0.06600
C1108       C  0.90825986  0.47241443  0.51542483    -0.14100
S1109       S  0.91731254  0.41554645  0.57787521    -0.31000
H1110       H  0.96104462  0.44679650  0.52468691     0.08200
S1111       S  0.93490606  0.00936890  0.45858492    -0.28100
H1112       H  0.89348665  0.47959830  0.51290169     0.08000
H1113       H  0.78710810  0.37022321  0.59170148     0.26500
H1114       H  0.93913948  0.41166138  0.56561003     0.21300
H1115       H  0.94734716  0.00116758  0.43085101     0.26600
H1116       H  0.92507246  0.49130312  0.59175785     0.15400
C1117       C  0.51426962  0.36229028  0.38955725    -0.11900
C1118       C  0.99931685  0.36156481  0.35737599     0.14700
C1119       C  0.99602629  0.38459912  0.34940643     0.01600
C1120       C  0.00714651  0.40735750  0.37376858    -0.16200
C1121       C  0.52267055  0.40847865  0.40545311    -0.11000
C1122       C  0.52623234  0.38558296  0.41341856     0.08300
C1123       C  0.98727504  0.33660510  0.33264795     0.09300
S1124       S  0.97876472  0.38671122  0.30780854    -0.25400
H1125       H  0.00460616  0.42493767  0.36698409     0.19600
S1126       S  0.54496115  0.38540393  0.45465229    -0.31100
H1127       H  0.51658351  0.34452618  0.39583287     0.09900
C1128       C  0.00419226  0.33006504  0.31045643     0.03100
C1129       C  0.99203041  0.30696332  0.28645856    -0.13400
C1130       C  0.96311093  0.29007233  0.28362623    -0.09000
C1131       C  0.94622500  0.29647700  0.30660164     0.06600
C1132       C  0.95844639  0.31967228  0.33039963    -0.14100
S1133       S  0.54132774  0.35196183  0.31126367    -0.31000
H1134       H  0.00521957  0.30247931  0.26899549     0.10800
S1135       S  0.90908277  0.27553729  0.30800708    -0.28100
H1136       H  0.94534112  0.32450237  0.34758255     0.08000
H1137       H  0.54309435  0.35963062  0.44799226     0.26500
H1138       H  0.54716065  0.33880854  0.28181802     0.21300
H1139       H  0.90885480  0.25017466  0.30645007     0.26600
H1140       H  0.98700215  0.37173724  0.28446586     0.15400
C1141       C  0.98133332  0.12064317  0.40212766    -0.11900
C1142       C  0.99637460  0.13925995  0.37322234     0.14700
C1143       C  0.52464937  0.14773502  0.36884698     0.01600
C1144       C  0.53691700  0.13681684  0.39228385    -0.16200
C1145       C  0.52158005  0.11687163  0.41971313    -0.11000
C1146       C  0.99363700  0.10953516  0.42553778     0.08300
C1147       C  0.98223557  0.14934539  0.34765843     0.09300
S1148       S  0.54595940  0.17127440  0.33256496    -0.25400
H1149       H  0.55836151  0.14281503  0.38736799     0.19600
S1150       S  0.97286523  0.08688925  0.46283336    -0.31100
H1151       H  0.95981141  0.11463466  0.40632123     0.09900
C1152       C  0.96215643  0.13147825  0.32174664     0.03100
C1153       C  0.95100830  0.14227887  0.29586736    -0.13400
C1154       C  0.95973695  0.17070863  0.29482889    -0.09000
C1155       C  0.97927718  0.18839378  0.32170375     0.06600
C1156       C  0.99030095  0.17755360  0.34759576    -0.14100
S1157       S  0.95207083  0.09523131  0.31988660    -0.31000
H1158       H  0.93624554  0.12866105  0.27524570     0.10800
S1159       S  0.49073408  0.22483119  0.32494899    -0.28100
H1160       H  0.50558659  0.19129398  0.36766598     0.08000
H1161       H  0.99501153  0.09460088  0.48788001     0.26500
H1162       H  0.93326431  0.08797918  0.28998150     0.21300
H1163       H  0.96484135  0.22196691  0.31609816     0.26600
H1164       H  0.52512844  0.16173969  0.30509592     0.15400
C1165       C  0.69363462  0.27989282  0.56165781    -0.11900
C1166       C  0.69973202  0.25828298  0.56313475     0.14700
C1167       C  0.71812823  0.25899055  0.59096436     0.01600
C1168       C  0.72938472  0.28070599  0.61699411    -0.16200
C1169       C  0.72219263  0.30156229  0.61677719    -0.11000
C1170       C  0.70470229  0.30150164  0.58795196     0.08300
C1171       C  0.68588529  0.23475999  0.53639887     0.09300
S1172       S  0.72714208  0.23220483  0.59591853    -0.25400
H1173       H  0.74285650  0.28055476  0.63878455     0.19600
S1174       S  0.69634200  0.32871211  0.58252000    -0.31100
H1175       H  0.67997313  0.27979234  0.53996765     0.09900
C1176       C  0.65722592  0.21619217  0.53861476     0.03100
C1177       C  0.64527285  0.19254547  0.51586030    -0.13400
C1178       C  0.66123628  0.18669592  0.49079608    -0.09000
C1179       C  0.68967133  0.20638416  0.48679273     0.06600
C1180       C  0.70167907  0.22998006  0.50982294    -0.14100
S1181       S  0.63605374  0.22119253  0.57266979    -0.31000
H1182       H  0.62354230  0.17771064  0.51934841     0.10800
S1183       S  0.71166452  0.20292728  0.45268512    -0.28100
H1184       H  0.72360253  0.24455835  0.50742202     0.08000
H1185       H  0.72217203  0.35008837  0.59487159     0.26500
H1186       H  0.61033800  0.20044483  0.55905484     0.21300
H1187       H  0.69079986  0.18985063  0.42550502     0.26600
H1188       H  0.70123195  0.21017555  0.58518974     0.15400
C1189       C  0.76127921  0.11207777  0.36527686    -0.11900
C1190       C  0.77912709  0.14060047  0.36939150     0.14700
C1191       C  0.77233711  0.15540472  0.39545575     0.01600
C1192       C  0.74757165  0.14157107  0.41584483    -0.16200
C1193       C  0.72930674  0.11300844  0.41128112    -0.11000
C1194       C  0.73654087  0.09820103  0.38549253     0.08300
C1195       C  0.80329137  0.15432799  0.34371436     0.09300
S1196       S  0.79432590  0.19192412  0.40389851    -0.25400
H1197       H  0.74252715  0.15327987  0.43542507     0.19600
S1198       S  0.71439688  0.06215226  0.37433607    -0.31100
H1199       H  0.76614225  0.10070563  0.34487141     0.09900
C1200       C  0.82504016  0.14832438  0.34504246     0.03100
C1201       C  0.84584012  0.15925508  0.31751980    -0.13400
C1202       C  0.84559036  0.17632727  0.28862040    -0.09000
C1203       C  0.82413051  0.18298693  0.28820233     0.06600
C1204       C  0.80325207  0.17182877  0.31547109    -0.14100
S1205       S  0.82625982  0.12665424  0.38181310    -0.31000
H1206       H  0.86226513  0.15424121  0.31826627     0.10800
S1207       S  0.82073464  0.20338353  0.25167167    -0.28100
H1208       H  0.78637137  0.17618342  0.31404305     0.08000
H1209       H  0.69071934  0.06471313  0.36937563     0.26500
H1210       H  0.85138146  0.12848350  0.37097020     0.21300
H1211       H  0.84479463  0.22765956  0.26275850     0.26600
H1212       H  0.81930932  0.19277664  0.39496041     0.15400
C1213       C  0.70242656  0.59998022  0.43175585     0.79700
N1214       N  0.68934667  0.57265218  0.44112634    -0.78600
C1215       C  0.66319038  0.56002278  0.45501085     0.82200
N1216       N  0.65019927  0.57491264  0.45991554    -0.78500
C1217       C  0.66349200  0.60246615  0.45260091     0.82300
N1218       N  0.68953299  0.61492207  0.43832868    -0.80200
C1219       C  0.64783366  0.65875788  0.47305488     0.79700
N1220       N  0.61997785  0.64501265  0.46757822    -0.78600
C1221       C  0.60643329  0.61790556  0.45771864     0.82200
N1222       N  0.62079578  0.60436044  0.45331501    -0.78500
C1223       C  0.64865635  0.61789384  0.45754575     0.82300
N1224       N  0.66214630  0.64503841  0.46778239    -0.80200
C1225       C  0.53490371  0.60252957  0.43809050     0.79700
N1226       N  0.52048812  0.57465960  0.44399715    -0.78600
C1227       C  0.53392714  0.56095282  0.45450967     0.82200
N1228       N  0.56183039  0.57509786  0.45842141    -0.78500
C1229       C  0.57626856  0.60288906  0.45343871     0.82300
N1230       N  0.56277728  0.61647477  0.44321021    -0.80200
C1231       C  0.53574467  0.93441938  0.42804872     0.79700
N1232       N  0.52128074  0.94774485  0.43519823    -0.78600
C1233       C  0.53400969  0.97339948  0.45082099     0.82200
N1234       N  0.56137496  0.98594235  0.45870758    -0.78500
C1235       C  0.57593637  0.97273527  0.45270831     0.82300
N1236       N  0.56313456  0.94697700  0.43715645    -0.80200
C1237       C  0.97899317  0.98935913  0.47741060     0.79700
N1238       N  0.99238544  0.97504201  0.46975854    -0.78600
C1239       C  0.51895742  0.98844837  0.45747312     0.82200
N1240       N  0.53226254  0.51632180  0.45312795    -0.78500
C1241       C  0.51896205  0.53076084  0.45961330     0.82300
N1242       N  0.99242735  0.51727474  0.47210092    -0.80200
C1243       C  0.64673344  0.98867117  0.48035364     0.79700
N1244       N  0.61904763  0.97433882  0.47313160    -0.78600
C1245       C  0.60585491  0.98768071  0.46025092     0.82200
N1246       N  0.62030962  0.51551823  0.45532973    -0.78500
C1247       C  0.64794613  0.52996624  0.46160359     0.82300
N1248       N  0.66108390  0.51650445  0.47411583    -0.80200
Fe1249     Fe  0.71746345  0.85515833  0.70488659     1.65800
Fe1250     Fe  0.77734784  0.91799168  0.70370239     1.73200
Fe1251     Fe  0.78040296  0.85803419  0.70189081     1.54400
O1252       O  0.75712577  0.82962389  0.74292122    -0.82200
O1253       O  0.80339294  0.92202056  0.66016369    -0.80500
O1254       O  0.71685571  0.82887042  0.74657488    -0.84700
O1255       O  0.71542495  0.82853241  0.66274980    -0.79500
O1256       O  0.80734286  0.88260688  0.74356629    -0.81300
O1257       O  0.75109318  0.91950499  0.66408051    -0.84000
C1258       C  0.73205369  0.82186868  0.64803963     0.96700
C1259       C  0.73331626  0.82065228  0.75726629     1.04200
O1260       O  0.75840486  0.87705547  0.70360752    -1.13000
O1261       O  0.75368144  0.91922554  0.74728050    -0.75500
O1262       O  0.71405118  0.87923339  0.74662286    -0.78900
O1263       O  0.75661888  0.83128506  0.65971366    -0.79600
C1264       C  0.72946130  0.90342858  0.75954408     0.95600
O1265       O  0.71271727  0.87839465  0.66335778    -0.77600
O1266       O  0.80656967  0.92220656  0.74281105    -0.82800
C1267       C  0.81300320  0.90730416  0.64724499     0.98300
C1268       C  0.81613152  0.90721444  0.75490693     1.04200
O1269       O  0.80646703  0.88367552  0.66044167    -0.78400
C1270       C  0.72736755  0.90283156  0.65097918     1.02500
C1271       C  0.53758657  0.59773031  0.98483350     0.79700
N1272       N  0.52237350  0.57031795  0.97616490    -0.78600
C1273       C  0.53441951  0.55710677  0.95931318     0.82200
N1274       N  0.56181522  0.57132688  0.95128316    -0.78500
C1275       C  0.57703262  0.59887609  0.95814844     0.82300
N1276       N  0.56488185  0.61210435  0.97497211    -0.80200
C1277       C  0.97913422  0.98672556  0.93143244     0.79700
N1278       N  0.99184716  0.97178570  0.93914619    -0.78600
C1279       C  0.51790664  0.98437308  0.95318350     0.82200
N1280       N  0.53145459  0.51206047  0.95911620    -0.78500
C1281       C  0.51885192  0.52711535  0.95265540     0.82300
N1282       N  0.99272690  0.51448075  0.93850975    -0.80200
C1283       C  0.53279329  0.92804336  0.97643360     0.79700
N1284       N  0.51872956  0.94189759  0.97019144    -0.78600
C1285       C  0.53247154  0.96886803  0.95937845     0.82200
N1286       N  0.56027799  0.98201078  0.95497855    -0.78500
C1287       C  0.57434600  0.96827095  0.96022022     0.82300
N1288       N  0.56062965  0.94141855  0.97118510    -0.80200
C1289       C  0.64359405  0.98161808  0.93151535     0.79700
N1290       N  0.61638593  0.96819090  0.94096995    -0.78600
C1291       C  0.60415199  0.98247292  0.95349561     0.82200
N1292       N  0.61926059  0.51033003  0.95704797    -0.78500
C1293       C  0.64675141  0.52387051  0.94966812     0.82300
N1294       N  0.65893416  0.50952647  0.93672509    -0.80200
C1295       C  0.70222070  0.59449245  0.97508278     0.79700
N1296       N  0.68856518  0.56672701  0.96846437    -0.78600
C1297       C  0.66249017  0.55400991  0.95434657     0.82200
N1298       N  0.64983932  0.56899651  0.94752172    -0.78500
C1299       C  0.66336380  0.59674503  0.95299515     0.82300
N1300       N  0.68949538  0.60944642  0.96706446    -0.80200
C1301       C  0.64670241  0.65071058  0.92249450     0.79700
N1302       N  0.66120519  0.63746987  0.93006168    -0.78600
C1303       C  0.64853586  0.61209186  0.94649953     0.82200
N1304       N  0.62126771  0.59990345  0.95517000    -0.78500
C1305       C  0.60685028  0.61330289  0.94944767     0.82300
N1306       N  0.61963172  0.63874396  0.93314686    -0.80200
Fe1307     Fe  0.90168894  0.66787617  0.20840935     1.65800
Fe1308     Fe  0.90342484  0.73022624  0.20043666     1.73200
Fe1309     Fe  0.96383362  0.72826932  0.20619628     1.54400
O1310       O  0.96586117  0.70433062  0.24907315    -0.82200
O1311       O  0.92811995  0.75431611  0.15662138    -0.80500
O1312       O  0.92500816  0.66590316  0.25211098    -0.84700
O1313       O  0.92615240  0.66271170  0.16889132    -0.79500
O1314       O  0.96645480  0.75629636  0.24653636    -0.81300
O1315       O  0.87565982  0.70372266  0.16050013    -0.84000
C1316       C  0.94998014  0.67798718  0.15478419     0.96700
C1317       C  0.94951260  0.68112556  0.26383585     1.04200
O1318       O  0.92295714  0.70878846  0.20509006    -1.13000
O1319       O  0.87617153  0.70880059  0.24357477    -0.75500
O1320       O  0.87464926  0.66818144  0.24819617    -0.78900
O1321       O  0.96586140  0.70268283  0.16564020    -0.79600
C1322       C  0.86675576  0.68505764  0.25835422     0.95600
O1323       O  0.87533199  0.66379047  0.16506662    -0.77600
O1324       O  0.92863087  0.75983326  0.23976982    -0.82800
C1325       C  0.95309702  0.76306109  0.14721859     0.98300
C1326       C  0.95182470  0.76715250  0.25529299     1.04200
O1327       O  0.96807784  0.75511833  0.16360517    -0.78400
C1328       C  0.86708712  0.67898291  0.14985120     1.02500
C1329       C  0.81928422  0.67022642  0.06750183    -0.11900
C1330       C  0.80043538  0.64170390  0.06895638     0.14700
C1331       C  0.80522730  0.62526767  0.09470370     0.01600
C1332       C  0.82773891  0.63783490  0.11942344    -0.16200
C1333       C  0.84577019  0.66668750  0.11957672    -0.11000
C1334       C  0.84190240  0.68278762  0.09201800     0.08300
C1335       C  0.77570305  0.63006468  0.04403086     0.09300
S1336       S  0.78291450  0.58832831  0.09845941    -0.25400
H1337       H  0.83044730  0.62495918  0.13981033     0.19600
S1338       S  0.86549339  0.71919148  0.08551398    -0.31100
H1339       H  0.81626429  0.68286372  0.04703664     0.09900
C1340       C  0.75538385  0.63792106  0.04832871     0.03100
C1341       C  0.73245463  0.62691983  0.02424862    -0.13400
C1342       C  0.72875705  0.60755696  0.99628115    -0.09000
C1343       C  0.74917641  0.59963492  0.99206458     0.06600
C1344       C  0.77235679  0.61100449  0.01582477    -0.14100
S1345       S  0.75772775  0.66075418  0.08600369    -0.31000
H1346       H  0.71669639  0.63262996  0.02827018     0.10800
S1347       S  0.74728247  0.57561920  0.95663135    -0.28100
H1348       H  0.78795867  0.60499578  0.01227672     0.08000
H1349       H  0.88929518  0.71702294  0.09155936     0.26500
H1350       H  0.73266485  0.66020940  0.07875014     0.21300
H1351       H  0.73497548  0.58423284  0.92929853     0.26600
H1352       H  0.75822269  0.58826610  0.09026758     0.15400
C1353       C  0.01677151  0.85701265  0.01223962    -0.11900
C1354       C  0.99556422  0.85138478  0.03796457     0.14700
C1355       C  0.48557812  0.87015670  0.04127700     0.01600
C1356       C  0.49669286  0.89378413  0.01869569    -0.16200
C1357       C  0.51859878  0.90006566  0.99378177    -0.11000
C1358       C  0.52822919  0.88090852  0.98996734     0.08300
C1359       C  0.98522116  0.82663418  0.06237390     0.09300
S1360       S  0.45995097  0.86618961  0.07545616    -0.25400
H1361       H  0.48927089  0.90828295  0.02250743     0.19600
S1362       S  0.55468461  0.88530446  0.95700766    -0.31100
H1363       H  0.02448094  0.84265848  0.00955416     0.09900
C1364       C  0.95774276  0.80465308  0.06041782     0.03100
C1365       C  0.94793970  0.78379834  0.08785282    -0.13400
C1366       C  0.96532006  0.78383241  0.11650073    -0.09000
C1367       C  0.99354054  0.80485672  0.11629156     0.06600
C1368       C  0.00297134  0.82607162  0.08967979    -0.14100
S1369       S  0.93524237  0.80317486  0.02294800    -0.31000
H1370       H  0.92655877  0.76751143  0.08717380     0.10800
S1371       S  0.51819839  0.80718504  0.15077518    -0.28100
H1372       H  0.52421708  0.84279157  0.09093612     0.08000
H1373       H  0.54646971  0.89754223  0.92904054     0.26500
H1374       H  0.91201900  0.77809580  0.03376060     0.21300
H1375       H  0.01695266  0.78254413  0.13851823     0.26600
H1376       H  0.96827099  0.85407584  0.10341531     0.15400
C1377       C  0.52484749  0.64180603  0.05592065    -0.11900
C1378       C  0.99681741  0.63290520  0.04972227     0.14700
C1379       C  0.98254285  0.61306063  0.02142699     0.01600
C1380       C  0.49645240  0.60234466  0.00053599    -0.16200
C1381       C  0.52451117  0.61097128  0.00690838    -0.11000
C1382       C  0.53864039  0.63074018  0.03554510     0.08300
C1383       C  0.98290070  0.64348544  0.07500716     0.09300
S1384       S  0.94647438  0.60005562  0.01107482    -0.25400
H1385       H  0.98518428  0.58705737  0.97906501     0.19600
S1386       S  0.57337141  0.64092718  0.05007175    -0.31100
H1387       H  0.53573657  0.65658764  0.07808621     0.09900
C1388       C  0.96602001  0.62742703  0.10496498     0.03100
C1389       C  0.95463180  0.63882650  0.12960746    -0.13400
C1390       C  0.96000959  0.66615843  0.12532754    -0.09000
C1391       C  0.97617593  0.68185033  0.09440241     0.06600
C1392       C  0.98770332  0.67050303  0.07001664    -0.14100
S1393       S  0.96010925  0.59287581  0.11293653    -0.31000
H1394       H  0.94232664  0.62674560  0.15320796     0.10800
S1395       S  0.98226607  0.71611773  0.08387041    -0.28100
H1396       H  0.50044136  0.68278933  0.04679269     0.08000
H1397       H  0.56936901  0.61391689  0.04884113     0.26500
H1398       H  0.94348363  0.58718234  0.14507896     0.21300
H1399       H  0.95624778  0.71121830  0.09631191     0.26600
H1400       H  0.94523770  0.62331528  0.02370353     0.15400
C1401       C  0.69634224  0.77367961  0.84074519    -0.11900
C1402       C  0.70152614  0.75180259  0.83423162     0.14700
C1403       C  0.71856849  0.75364106  0.80369690     0.01600
C1404       C  0.72983983  0.77705146  0.78052267    -0.16200
C1405       C  0.72390606  0.79854928  0.78616799    -0.11000
C1406       C  0.70752137  0.79705932  0.81740810     0.08300
C1407       C  0.68778853  0.72686234  0.85859521     0.09300
S1408       S  0.72587867  0.72643428  0.79169091    -0.25400
H1409       H  0.74225363  0.77780752  0.75666769     0.19600
S1410       S  0.70074156  0.82452160  0.82972648    -0.31100
H1411       H  0.68350282  0.77252943  0.86427498     0.09900
C1412       C  0.70255664  0.72016772  0.88468105     0.03100
C1413       C  0.68861818  0.69543153  0.90536959    -0.13400
C1414       C  0.66008419  0.67711687  0.90071483    -0.09000
C1415       C  0.64546662  0.68411693  0.87435726     0.06600
C1416       C  0.65933140  0.70898356  0.85432564    -0.14100
S1417       S  0.73906052  0.74329696  0.89193099    -0.31000
H1418       H  0.70002116  0.69034187  0.92535985     0.10800
S1419       S  0.60968840  0.66149659  0.86247121    -0.28100
H1420       H  0.64801047  0.71393611  0.83394624     0.08000
H1421       H  0.72623309  0.84611068  0.81678234     0.26500
H1422       H  0.74272274  0.72760805  0.91990726     0.21300
H1423       H  0.61225923  0.63764044  0.86029863     0.26600
H1424       H  0.70079105  0.70432541  0.80464056     0.15400
C1425       C  0.88155511  0.95671062  0.80846886    -0.11900
C1426       C  0.88145351  0.93960793  0.83736284     0.14700
C1427       C  0.85944857  0.91203921  0.83955888     0.01600
C1428       C  0.83857404  0.90199285  0.81228940    -0.16200
C1429       C  0.83874717  0.91898650  0.78304673    -0.11000
C1430       C  0.86076952  0.94668474  0.78111094     0.08300
C1431       C  0.90569997  0.95053951  0.86280896     0.09300
S1432       S  0.85697467  0.88858763  0.87619536    -0.25400
H1433       H  0.82186659  0.88078322  0.81417241     0.19600
S1434       S  0.86477760  0.96972669  0.74305645    -0.31100
H1435       H  0.89862093  0.97772812  0.80632100     0.09900
C1436       C  0.92583460  0.94245970  0.85885597     0.03100
C1437       C  0.94886270  0.95378513  0.88273450    -0.13400
C1438       C  0.95260458  0.97345648  0.91032111    -0.09000
C1439       C  0.93205659  0.98115139  0.91457272     0.06600
C1440       C  0.90907145  0.96987065  0.89054283    -0.14100
S1441       S  0.92298070  0.91882509  0.82204853    -0.31000
H1442       H  0.96462597  0.94805248  0.87885610     0.10800
S1443       S  0.93343489  0.00452797  0.95061789    -0.28100
H1444       H  0.89351394  0.97599215  0.89369921     0.08000
H1445       H  0.85630933  0.94935107  0.71494443     0.26500
H1446       H  0.94712552  0.91796395  0.83092044     0.21300
H1447       H  0.94583442  0.99578745  0.97765306     0.26600
H1448       H  0.87125187  0.90891372  0.90363747     0.15400
C1449       C  0.65386934  0.93193681  0.86880127    -0.11900
C1450       C  0.68209554  0.94138817  0.87387832     0.14700
C1451       C  0.69715097  0.96296040  0.89978998     0.01600
C1452       C  0.68398849  0.97530019  0.91866191    -0.16200
C1453       C  0.65589425  0.96646935  0.91269750    -0.11000
C1454       C  0.64067961  0.94424489  0.88746039     0.08300
C1455       C  0.69581183  0.93141216  0.84738856     0.09300
S1456       S  0.73329677  0.97599884  0.90948453    -0.25400
H1457       H  0.69589059  0.49211361  0.93801696     0.19600
S1458       S  0.60522297  0.93221963  0.87451473    -0.31100
H1459       H  0.64236263  0.91593339  0.84821316     0.09900
C1460       C  0.68785164  0.90317469  0.84411308     0.03100
C1461       C  0.69924103  0.89463731  0.81540305    -0.13400
C1462       C  0.71854332  0.91371357  0.78985015    -0.09000
C1463       C  0.72647040  0.94205841  0.79350027     0.06600
C1464       C  0.71524927  0.95048894  0.82223770    -0.14100
S1465       S  0.66352534  0.87806084  0.87676343    -0.31000
H1466       H  0.69305401  0.87298251  0.81281100     0.10800
S1467       S  0.74908445  0.96840420  0.76094253    -0.28100
H1468       H  0.72082442  0.97207865  0.82400397     0.08000
H1469       H  0.60923455  0.95898457  0.86893362     0.26500
H1470       H  0.66327889  0.85472639  0.86117058     0.21300
H1471       H  0.73637402  0.95233002  0.72883876     0.26600
H1472       H  0.73329972  0.95140555  0.90052956     0.15400
C1473       C  0.72161781  0.94199035  0.56707879    -0.11900
C1474       C  0.69399510  0.93575363  0.57004726     0.14700
C1475       C  0.67690920  0.91674210  0.59770973     0.01600
C1476       C  0.68796195  0.90517663  0.62236811    -0.16200
C1477       C  0.71599747  0.91260893  0.62079365    -0.11000
C1478       C  0.73273132  0.93057824  0.59190463     0.08300
C1479       C  0.68374401  0.94980171  0.54455488     0.09300
S1480       S  0.64117607  0.90728166  0.60414195    -0.25400
H1481       H  0.67486515  0.89132164  0.64416825     0.19600
S1482       S  0.76815446  0.93921270  0.58454545    -0.31100
H1483       H  0.73464749  0.95599940  0.54536431     0.09900
C1484       C  0.69373275  0.97848907  0.54723995     0.03100
C1485       C  0.68214431  0.99071087  0.52463897    -0.13400
C1486       C  0.66062109  0.97496458  0.49923484    -0.09000
C1487       C  0.65173387  0.94641853  0.49524409     0.06600
C1488       C  0.66315048  0.93418027  0.51813569    -0.14100
S1489       S  0.72003426  0.99934595  0.58118421    -0.31000
H1490       H  0.68912727  0.51251034  0.52805079     0.10800
S1491       S  0.62652537  0.92453774  0.46098750    -0.28100
H1492       H  0.65586460  0.91224021  0.51545165     0.08000
H1493       H  0.76411200  0.91315285  0.59533457     0.26500
H1494       H  0.72230111  0.52488450  0.57159339     0.21300
H1495       H  0.63541915  0.94515886  0.43321228     0.26600
H1496       H  0.64453313  0.93327742  0.59468199     0.15400
C1497       C  0.85829848  0.91342768  0.56388649    -0.11900
C1498       C  0.87919327  0.94121237  0.56690667     0.14700
C1499       C  0.87655160  0.95828341  0.59403656     0.01600
C1500       C  0.85380616  0.94701698  0.61829088    -0.16200
C1501       C  0.83377230  0.91881683  0.61680342    -0.11000
C1502       C  0.83560195  0.90212017  0.58829102     0.08300
C1503       C  0.90353661  0.95175861  0.54164907     0.09300
S1504       S  0.90205608  0.99425066  0.60039951    -0.25400
H1505       H  0.85257450  0.96009093  0.63983480     0.19600
S1506       S  0.80936784  0.86654103  0.58091275    -0.31100
H1507       H  0.85977424  0.90044563  0.54242574     0.09900
C1508       C  0.92236137  0.94185550  0.54409265     0.03100
C1509       C  0.94605553  0.95361074  0.52141213    -0.13400
C1510       C  0.95153471  0.97517888  0.49620391    -0.09000
C1511       C  0.93180145  0.98400937  0.49250767     0.06600
C1512       C  0.90825984  0.97241510  0.51542507    -0.14100
S1513       S  0.91731191  0.91554637  0.57787446    -0.31000
H1514       H  0.96104415  0.94679656  0.52468652     0.08200
S1515       S  0.93490595  0.50936809  0.45858451    -0.28100
H1516       H  0.89348670  0.97959918  0.51290211     0.08000
H1517       H  0.78710765  0.87022372  0.59170109     0.26500
H1518       H  0.93913742  0.91165972  0.56560709     0.21300
H1519       H  0.94734721  0.50116683  0.43085075     0.26600
H1520       H  0.92507234  0.99130318  0.59175838     0.15400
C1521       C  0.51426923  0.86229006  0.38955795    -0.11900
C1522       C  0.99931620  0.86156458  0.35737646     0.14700
C1523       C  0.99602612  0.88459909  0.34940624     0.01600
C1524       C  0.00714635  0.90735758  0.37376822    -0.16200
C1525       C  0.52266996  0.90847842  0.40545340    -0.11000
C1526       C  0.52623197  0.88558287  0.41341899     0.08300
C1527       C  0.98727446  0.83660479  0.33264857     0.09300
S1528       S  0.97876519  0.88671133  0.30780773    -0.25400
H1529       H  0.00460638  0.92493790  0.36698327     0.19600
S1530       S  0.54496106  0.88540419  0.45465260    -0.31100
H1531       H  0.51658333  0.84452606  0.39583368     0.09900
C1532       C  0.00419178  0.83006450  0.31045765     0.03100
C1533       C  0.99203003  0.80696278  0.28645976    -0.13400
C1534       C  0.96311055  0.79007198  0.28362691    -0.09000
C1535       C  0.94622452  0.79647681  0.30660185     0.06600
C1536       C  0.95844581  0.81967213  0.33039980    -0.14100
S1537       S  0.54132733  0.85196104  0.31126537    -0.31000
H1538       H  0.00521925  0.80247866  0.26899708     0.10800
S1539       S  0.90908226  0.77553729  0.30800675    -0.28100
H1540       H  0.94534049  0.82450237  0.34758228     0.08000
H1541       H  0.54309474  0.85963111  0.44799247     0.26500
H1542       H  0.54716047  0.83880722  0.28182067     0.21300
H1543       H  0.90885412  0.75017458  0.30645000     0.26600
H1544       H  0.98700230  0.87173675  0.28446571     0.15400
C1545       C  0.98133304  0.62064272  0.40212758    -0.11900
C1546       C  0.99637416  0.63925930  0.37322201     0.14700
C1547       C  0.52464877  0.64773385  0.36884586     0.01600
C1548       C  0.53691647  0.63681580  0.39228283    -0.16200
C1549       C  0.52157964  0.61687085  0.41971244    -0.11000
C1550       C  0.99363677  0.60953475  0.42553768     0.08300
C1551       C  0.98223510  0.64934480  0.34765824     0.09300
S1552       S  0.54595860  0.67127287  0.33256341    -0.25400
H1553       H  0.55836097  0.64281391  0.38736684     0.19600
S1554       S  0.97286521  0.58688911  0.46283360    -0.31100
H1555       H  0.95981112  0.61463433  0.40632141     0.09900
C1556       C  0.96215595  0.63147772  0.32174642     0.03100
C1557       C  0.95100783  0.64227838  0.29586714    -0.13400
C1558       C  0.95973653  0.67070818  0.29482883    -0.09000
C1559       C  0.97927669  0.68839324  0.32170381     0.06600
C1560       C  0.99030055  0.67755306  0.34759577    -0.14100
S1561       S  0.95207028  0.59523077  0.31988632    -0.31000
H1562       H  0.93624516  0.62866069  0.27524554     0.10800
S1563       S  0.49073366  0.72483040  0.32494895    -0.28100
H1564       H  0.50558637  0.69129308  0.36766535     0.08000
H1565       H  0.99501167  0.59460077  0.48787998     0.26500
H1566       H  0.93326396  0.58797874  0.28998100     0.21300
H1567       H  0.96484066  0.72196623  0.31609845     0.26600
H1568       H  0.52512744  0.66173793  0.30509464     0.15400
C1569       C  0.69363408  0.77989274  0.56165782    -0.11900
C1570       C  0.69973135  0.75828282  0.56313469     0.14700
C1571       C  0.71812750  0.75899025  0.59096430     0.01600
C1572       C  0.72938406  0.78070566  0.61699410    -0.16200
C1573       C  0.72219214  0.80156206  0.61677720    -0.11000
C1574       C  0.70470183  0.80150153  0.58795200     0.08300
C1575       C  0.68588465  0.73475997  0.53639864     0.09300
S1576       S  0.72714121  0.73220442  0.59591836    -0.25400
H1577       H  0.74285581  0.78055434  0.63878455     0.19600
S1578       S  0.69634172  0.82871212  0.58252009    -0.31100
H1579       H  0.67997263  0.77979237  0.53996764     0.09900
C1580       C  0.65722527  0.71619215  0.53861439     0.03100
C1581       C  0.64527229  0.69254553  0.51585984    -0.13400
C1582       C  0.66123575  0.68669601  0.49079566    -0.09000
C1583       C  0.68967078  0.70638431  0.48679232     0.06600
C1584       C  0.70167846  0.72998014  0.50982265    -0.14100
S1585       S  0.63605303  0.72119244  0.57266938    -0.31000
H1586       H  0.62354164  0.67771060  0.51934791     0.10800
S1587       S  0.71166399  0.70292758  0.45268459    -0.28100
H1588       H  0.72360196  0.74455848  0.50742178     0.08000
H1589       H  0.72217177  0.85008829  0.59487176     0.26500
H1590       H  0.61033731  0.70044477  0.55905430     0.21300
H1591       H  0.69079929  0.68985078  0.42550459     0.26600
H1592       H  0.70123114  0.71017523  0.58518920     0.15400
C1593       C  0.76127907  0.61207808  0.36527653    -0.11900
C1594       C  0.77912700  0.64060077  0.36939111     0.14700
C1595       C  0.77233702  0.65540512  0.39545519     0.01600
C1596       C  0.74757157  0.64157154  0.41584434    -0.16200
C1597       C  0.72930666  0.61300889  0.41128077    -0.11000
C1598       C  0.73654072  0.59820142  0.38549217     0.08300
C1599       C  0.80329130  0.65432815  0.34371398     0.09300
S1600       S  0.79432574  0.69192459  0.40389765    -0.25400
H1601       H  0.74252709  0.65328039  0.43542449     0.19600
S1602       S  0.71439655  0.56215272  0.37433553    -0.31100
H1603       H  0.76614205  0.60070589  0.34487112     0.09900
C1604       C  0.82503979  0.64832409  0.34504175     0.03100
C1605       C  0.84583964  0.65925460  0.31751897    -0.13400
C1606       C  0.84559017  0.67632711  0.28861986    -0.09000
C1607       C  0.82413068  0.68298729  0.28820219     0.06600
C1608       C  0.80325228  0.67182923  0.31547097    -0.14100
S1609       S  0.82625926  0.62665372  0.38181221    -0.31000
H1610       H  0.86226447  0.65424036  0.31826518     0.10800
S1611       S  0.82073529  0.70338460  0.25167214    -0.28100
H1612       H  0.78637175  0.67618427  0.31404318     0.08000
H1613       H  0.69071907  0.56471373  0.36937542     0.26500
H1614       H  0.85138077  0.62848274  0.37096914     0.21300
H1615       H  0.84479545  0.72766028  0.26275948     0.26600
H1616       H  0.81930918  0.69277726  0.39495921     0.15400
loop_ 
_geom_bond_atom_site_label_1 
_geom_bond_atom_site_label_2 
_geom_bond_distance 
_geom_bond_site_symmetry_2 
_ccdc_geom_bond_type 
C1            N2   1.363       .  A
C1            N6   1.363       .  A
C1          C385   1.491       .  S
N2            C3   1.359       .  A
C3            N4   1.356       .  A
C3           C35   1.472       .  S
N4            C5   1.357       .  A
C5            N6   1.359       .  A
C5           C11   1.469       .  S
C7            N8   1.362       .  A
C7           N12   1.364       .  A
C7          C370   1.491       .  S
N8            C9   1.356       .  A
C9           N10   1.354       .  A
C9           C17   1.467       .  S
N10          C11   1.356       .  A
C11          N12   1.362       .  A
C13          N14   1.364       .  A
C13          N18   1.361       .  A
C13         C337   1.487       .  S
N14          C15   1.362       .  A
C15          N16   1.357       .  A
C15          C29   1.471       .  S
N16          C17   1.355       .  A
C17          N18   1.356       .  A
C19          N20   1.364       .  A
C19          N24   1.366       .  A
C19         C313   1.490       .  S
N20          C21   1.359       .  A
C21          N22   1.355       .  A
C21          C27   1.470       .  S
N22          C23   1.356       .  A
C23          N24   1.362       .  A
C23          C33   1.472       .  S
C25          N26   1.363       .  A
C25         N434   1.363       .  A
C25         C298   1.488       .  S
N26         C835   1.358       .  A
C27         N834   1.358   1_455  A
C27         N432   1.357       .  A
N28          C29   1.357       .  A
N28         C431   1.357   1_545  A
C29         N838   1.359   1_455  A
N30         C429   1.363   1_545  A
N30         C837   1.359       .  A
C31          N32   1.364       .  A
C31         N440   1.364       .  A
C31         C274   1.491       .  S
N32          C33   1.359       .  A
C33         N438   1.357       .  A
N34          C35   1.356       .  A
N34         C437   1.357   1_545  A
C35          N36   1.358       .  A
N36         C435   1.364   1_545  A
Fe37         O53   2.069       .  S
Fe37         O43   2.073       .  S
Fe37         O50   2.073       .  S
Fe37         O42   2.075       .  S
Fe37         O48   1.983       .  S
Fe38         O41   2.059       .  S
Fe38         O45   2.066       .  S
Fe38         O49   2.060       .  S
Fe38         O54   2.067       .  S
Fe38         O48   1.980       .  S
Fe39         O57   2.067       .  S
Fe39         O44   2.072       .  S
Fe39         O51   2.067       .  S
Fe39         O40   2.070       .  S
Fe39         O48   1.980       .  S
O40          C47   1.270       .  A
O41          C55   1.267       .  A
O42          C47   1.271       .  A
O43          C46   1.270       .  A
O44          C56   1.270       .  A
O45          C58   1.268       .  A
C46         C361   1.484       .  S
C46          O51   1.269       .  A
C47         C193   1.487       .  S
O49          C52   1.268       .  A
O50          C52   1.271       .  A
C52         C250   1.486       .  S
O53          C58   1.269       .  A
O54          C56   1.269       .  A
C55         C289   1.480       .  S
C55          O57   1.269       .  A
C56         C217   1.485       .  S
C58         C265   1.484       .  S
C59          N60   1.363       .  A
C59          N64   1.367       .  A
C59         C169   1.492   1_556  S
N60          C61   1.357       .  A
C61          N62   1.356       .  A
C61          C69   1.469       .  S
N62          C63   1.356       .  A
C63          N64   1.362       .  A
C63          C93   1.475       .  S
C65          N66   1.363       .  A
C65         N474   1.365       .  A
C65         C226   1.488       .  S
N66         C875   1.357       .  A
C67         N874   1.357   1_455  A
C67         N472   1.355       .  A
C67          C73   1.467       .  S
N68          C69   1.355       .  A
N68         C471   1.355   1_545  A
C69         N878   1.361   1_455  A
N70         C469   1.365   1_545  A
N70         C877   1.361       .  A
C71          N72   1.364       .  A
C71          N76   1.360       .  A
C71         C145   1.487       .  S
N72          C73   1.360       .  A
C73          N74   1.355       .  A
N74          C75   1.354       .  A
C75          N76   1.356       .  A
C75          C79   1.462       .  S
C77          N78   1.359       .  A
C77         N486   1.364       .  A
C77         C241   1.485       .  S
N78          C79   1.355       .  A
C79         N484   1.354       .  A
N80          C81   1.356       .  A
N80         C483   1.354   1_545  A
C81          N82   1.360       .  A
C81          C85   1.467       .  S
N82         C481   1.364   1_545  A
C83          N84   1.362       .  A
C83          N88   1.366       .  A
C83         C130   1.490       .  S
N84          C85   1.358       .  A
C85          N86   1.356       .  A
N86          C87   1.355       .  A
C87          N88   1.360       .  A
C87          C91   1.473       .  S
C89          N90   1.365       .  A
C89          N94   1.366       .  A
C89         C202   1.494       .  S
N90          C91   1.360       .  A
C91          N92   1.357       .  A
N92          C93   1.357       .  A
C93          N94   1.360       .  A
Fe95        O111   2.066       .  S
Fe95        O101   2.077       .  S
Fe95        O108   2.075       .  S
Fe95        O100   2.067       .  S
Fe95        O106   1.982       .  S
Fe96         O99   2.073       .  S
Fe96        O103   2.081       .  S
Fe96        O107   2.072       .  S
Fe96        O112   2.087       .  S
Fe96        O106   1.983       .  S
Fe97        O115   2.061       .  S
Fe97        O102   2.072       .  S
Fe97        O109   2.071       .  S
Fe97         O98   2.069       .  S
Fe97        O106   1.978       .  S
O98         C105   1.268       .  A
O99         C113   1.270       .  A
O100        C105   1.268       .  A
O101        C104   1.272       .  A
O102        C114   1.272       .  A
O103        C116   1.271       .  A
C104        C178   1.487       .  S
C104        O109   1.271       .  A
C105        C346   1.487       .  S
O107        C110   1.270       .  A
O108        C110   1.272       .  A
C110        C394   1.490       .  S
O111        C116   1.268       .  A
O112        C114   1.273       .  A
C113        C154   1.490       .  S
C113        O115   1.266       .  A
C114        C322   1.498       .  S
C116        C121   1.496       .  S
C117        C118   1.404       .  A
C117        C122   1.402       .  A
C117        H127   1.084       .  S
C118        C123   1.491       .  S
C118        C119   1.413       .  A
C119        C120   1.403       .  A
C119        S124   1.804       .  S
C120        C121   1.410       .  A
C120        H125   1.083       .  S
C121        C122   1.418       .  A
C122        S126   1.801       .  S
C123        C128   1.411       .  A
C123        C132   1.405       .  A
S124        H140   1.406       .  S
S126        H137   1.408       .  S
C128        C129   1.403       .  A
C128        S133   1.808       .  S
C129        C130   1.406   1_554  A
C129        H134   1.082       .  S
C130        C131   1.418       .  A
C131        C132   1.405   1_556  A
C131        S135   1.803       .  S
C132        H136   1.083       .  S
S133        H138   1.406       .  S
S135        H139   1.407       .  S
C141        C142   1.402       .  A
C141        C954   1.402   1_554  A
C141        H151   1.084       .  S
C142        C147   1.484       .  S
C142        C951   1.412       .  A
C143        C144   1.398       .  A
C143        C950   1.412       .  A
C143        S148   1.805       .  S
C144        C145   1.406   1_654  A
C144        H149   1.083       .  S
C145        C146   1.419       .  A
C146        C949   1.402   1_556  A
C146        S150   1.804       .  S
C147        C152   1.409       .  A
C147        C156   1.400       .  A
S148        H972   1.406       .  S
S150        H161   1.407       .  S
C152        C153   1.405       .  A
C152        S157   1.806       .  S
C153        C154   1.407       .  A
C153        H158   1.081       .  S
C154        C155   1.420       .  A
C155        C156   1.399       .  A
C155        S967   1.800       .  S
C156        H968   1.084       .  S
S157        H162   1.407       .  S
S159        C963   1.800   1_455  S
S159        H971   1.408       .  S
H160        C964   1.084       .  S
H163        S967   1.408       .  S
H164        S956   1.406       .  S
C165        C170   1.403       .  A
C165        C974   1.402   1_455  A
C165        H175   1.083       .  S
C166        C171   1.488       .  S
C166        C167   1.413       .  A
C166        C973   1.402       .  A
C167        C976   1.404       .  A
C167        S172   1.805       .  S
C168        C169   1.408   1_655  A
C168        C975   1.404       .  A
C168        H981   1.083   1_554  S
C169        C170   1.418       .  A
C170        S174   1.802       .  S
C171        C176   1.410       .  A
C171        C180   1.403       .  A
S172        H188   1.405       .  S
H173        C976   1.083   1_556  S
S174        H185   1.408       .  S
C176        C177   1.406       .  A
C176        S181   1.806       .  S
C177        C178   1.406       .  A
C177        H182   1.083       .  S
C178        C179   1.417       .  A
C179        C180   1.403       .  A
C179        S183   1.804       .  S
C180        H992   1.084       .  S
S181        H186   1.407       .  S
S183        H187   1.407       .  S
H184        C988   1.084   1_455  S
C189        C190   1.404       .  A
C189        C194   1.404       .  A
C189        H199   1.083       .  S
C190        C195   1.488       .  S
C190        C191   1.414       .  A
C191        C192   1.401       .  A
C191        S196   1.805       .  S
C192        C193   1.406       .  A
C192        H197   1.083       .  S
C193        C194   1.416       .  A
C194        S198   1.802       .  S
C195        C200   1.410       .  A
C195        C204   1.400       .  A
S196        H212   1.405       .  S
S198        H209   1.407       .  S
C200        C201   1.408       .  A
C200        S205   1.806       .  S
C201        C202   1.409       .  A
C201        H206   1.083       .  S
C202        C203   1.420       .  A
C203        C204   1.401       .  A
C203        S207   1.802       .  S
C204        H208   1.084       .  S
S205        H210   1.407       .  S
S207        H211   1.407       .  S
C213        C214   1.402       .  A
C213        C218   1.401       .  A
C213        H223   1.084       .  S
C214        C219   1.484       .  S
C214        C215   1.413       .  A
C215        C216   1.402       .  A
C215        S220   1.804       .  S
C216        C217   1.405       .  A
C216        H221   1.084       .  S
C217        C218   1.418       .  A
C218        S222   1.804       .  S
C219        C224   1.408       .  A
C219        C228   1.403       .  A
S220        H236   1.405       .  S
S222        H233   1.407       .  S
C224        C225   1.402       .  A
C224        S229   1.808       .  S
C225        C226   1.408       .  A
C225        H230   1.082       .  S
C226        C227   1.416       .  A
C227        C228   1.404       .  A
C227        S231   1.802       .  S
C228        H232   1.084       .  S
S229        H234   1.407       .  S
S231        H235   1.407       .  S
C237        C238   1.401       .  A
C237        C242   1.397       .  A
C237        H247   1.084       .  S
C238        C243   1.485       .  S
C238        C239   1.413       .  A
C239        C240   1.401       .  A
C239        S244   1.804       .  S
C240        C241   1.405       .  A
C240        H649   1.084       .  S
C241        C242   1.420       .  A
C242        S246   1.804       .  S
C243        C248   1.411       .  A
C243        C252   1.401       .  A
S244        H260   1.406       .  S
H245        C644   1.084       .  S
S246        H257   1.407       .  S
C248        C249   1.405       .  A
C248        S253   1.807       .  S
C249        C250   1.407       .  A
C249        H254   1.081       .  S
C250        C251   1.418       .  A
C251        C252   1.397       .  A
C251        S255   1.803       .  S
C252        H256   1.084       .  S
S253        H258   1.407       .  S
S255        H259   1.408       .  S
C261        C262   1.404       .  A
C261        C266   1.401       .  A
C261        H271   1.083       .  S
C262        C267   1.487       .  S
C262        C263   1.414       .  A
C263        C264   1.401       .  A
C263        S268   1.804       .  S
C264        C265   1.405       .  A
C264        H269   1.083       .  S
C265        C266   1.416       .  A
C266        S270   1.804       .  S
C267        C272   1.410       .  A
C267        C276   1.403       .  A
S268        H284   1.406       .  S
S270        H281   1.408       .  S
C272        C273   1.403       .  A
C272        S277   1.808       .  S
C273        C274   1.408       .  A
C273        H682   1.082       .  S
C274        C275   1.418       .  A
C275        C276   1.403       .  A
C275        S279   1.802       .  S
C276        H280   1.083       .  S
S277        H686   1.406       .  S
H278        C677   1.082   1_545  S
S279        H283   1.407       .  S
H282        S681   1.406   1_545  S
C285        C286   1.404       .  A
C285        C290   1.400       .  A
C285        H295   1.083       .  S
C286        C291   1.484       .  S
C286        C287   1.413       .  A
C287        C288   1.399       .  A
C287        S292   1.804       .  S
C288        C289   1.405       .  A
C288        H293   1.083       .  S
C289        C290   1.414       .  A
C290        S294   1.804       .  S
C291        C296   1.410       .  A
C291        C300   1.403       .  A
S292        H308   1.406       .  S
S294        H305   1.408       .  S
C296        C297   1.402       .  A
C296        S301   1.808       .  S
C297        C298   1.407       .  A
C297        H302   1.082       .  S
C298        C299   1.417       .  A
C299        C300   1.401       .  A
C299        S707   1.802       .  S
C300        H304   1.083       .  S
S301        H306   1.407       .  S
S303        C703   1.802   1_545  S
S303        H307   1.407       .  S
C309        C314   1.411       .  A
C309       C1118   1.407   1_455  A
C309        H319   1.083       .  S
C310        C315   1.494       .  S
C310        C311   1.412       .  A
C310       C1117   1.407       .  A
C311        C312   1.401       .  A
C311        S316   1.804       .  S
C312       C1121   1.406       .  A
C312        H317   1.084       .  S
C313        C314   1.414       .  A
C313       C1120   1.406       .  A
C314        S318   1.806       .  S
C315        C320   1.410       .  A
C315        C324   1.404       .  A
S316        H332   1.406       .  S
S318        H329   1.407       .  S
C320        C321   1.407       .  A
C320       S1133   1.807       .  S
C321        C322   1.410       .  A
C321        H326   1.082       .  S
C322        C323   1.420       .  A
C323        C324   1.406       .  A
C323        S327   1.803       .  S
C324        H328   1.084       .  S
S325       C1128   1.807       .  S
S325        H330   1.407       .  S
S327        H331   1.407       .  S
C333        C334   1.406       .  A
C333        C338   1.405       .  A
C333        H343   1.084       .  S
C334        C339   1.486       .  S
C334       C1143   1.411       .  A
C335        C336   1.397       .  A
C335       C1142   1.411   1_455  A
C335        S340   1.804       .  S
C336        C337   1.406       .  A
C336        H341   1.084       .  S
C337       C1146   1.415   1_455  A
C338       C1145   1.415       .  A
C338        S342   1.802       .  S
C339        C344   1.410       .  A
C339        C348   1.403       .  A
S340        H356   1.406       .  S
S342        H353   1.407       .  S
C344        C345   1.404       .  A
C344        S349   1.808       .  S
C345        C346   1.407       .  A
C345        H350   1.083       .  S
C346        C347   1.417       .  A
C347        C348   1.402       .  A
C347       S1159   1.803       .  S
C348       H1160   1.084       .  S
S349        H354   1.406       .  S
S351       C1155   1.803       .  S
S351       H1163   1.407       .  S
H352       C1156   1.084   1_455  S
H355       S1159   1.407       .  S
C357        C358   1.405       .  A
C357        C362   1.403       .  A
C357        H367   1.084       .  S
C358        C363   1.488       .  S
C358        C359   1.414       .  A
C359        C360   1.401       .  A
C359        S364   1.804       .  S
C360        C361   1.405       .  A
C360        H365   1.084       .  S
C361        C362   1.416       .  A
C362        S366   1.804       .  S
C363        C368   1.409       .  A
C363        C372   1.405       .  A
S364        H380   1.406       .  S
S366        H377   1.407       .  S
C368        C369   1.401       .  A
C368        S373   1.808       .  S
C369        C370   1.408       .  A
C369        H374   1.082       .  S
C370        C371   1.417       .  A
C371        C372   1.405       .  A
C371        S375   1.803       .  S
C372        H376   1.083       .  S
S373        H378   1.407       .  S
S375        H379   1.407       .  S
C381        C382   1.401       .  A
C381        C386   1.399       .  A
C381        H391   1.083       .  S
C382        C387   1.487       .  S
C382        C383   1.412       .  A
C383        C384   1.404       .  A
C383        S388   1.803       .  S
C384        C385   1.408       .  A
C384        H389   1.083       .  S
C385        C386   1.420       .  A
C386        S390   1.803       .  S
C387        C392   1.410       .  A
C387        C396   1.403       .  A
S388        H404   1.406       .  S
S390        H401   1.408       .  S
C392        C393   1.405       .  A
C392        S397   1.806       .  S
C393        C394   1.407       .  A
C393        H398   1.082       .  S
C394        C395   1.418       .  A
C395        C396   1.402       .  A
C395        S399   1.800       .  S
C396        H400   1.083       .  S
S397        H402   1.406       .  S
S399        H403   1.407       .  S
C405        N406   1.363       .  A
C405        N410   1.363       .  A
C405        C789   1.491       .  S
N406        C407   1.359       .  A
C407        N408   1.356       .  A
C407        C439   1.472       .  S
N408        C409   1.357       .  A
C409        N410   1.359       .  A
C409        C415   1.469       .  S
C411        N412   1.362       .  A
C411        N416   1.364       .  A
C411        C774   1.491       .  S
N412        C413   1.356       .  A
C413        N414   1.354       .  A
C413        C421   1.467       .  S
N414        C415   1.356       .  A
C415        N416   1.362       .  A
C417        N418   1.364       .  A
C417        N422   1.361       .  A
C417        C741   1.487       .  S
N418        C419   1.362       .  A
C419        N420   1.357       .  A
C419        C433   1.471       .  S
N420        C421   1.355       .  A
C421        N422   1.356       .  A
C423        N424   1.364       .  A
C423        N428   1.366       .  A
C423        C717   1.490       .  S
N424        C425   1.359       .  A
C425        N426   1.355       .  A
C425        C431   1.470       .  S
N426        C427   1.356       .  A
C427        N428   1.362       .  A
C427        C437   1.472       .  S
C429        N430   1.363       .  A
C429        C702   1.488       .  S
N430       C1239   1.358       .  A
C431       N1238   1.358   1_455  A
N432        C433   1.357       .  A
C433       N1242   1.358   1_455  A
N434       C1241   1.358       .  A
C435        N436   1.364       .  A
C435        C678   1.491       .  S
N436        C437   1.359       .  A
N438        C439   1.356       .  A
C439        N440   1.358       .  A
Fe441       O457   2.069       .  S
Fe441       O447   2.073       .  S
Fe441       O454   2.073       .  S
Fe441       O446   2.075       .  S
Fe441       O452   1.983       .  S
Fe442       O445   2.059       .  S
Fe442       O449   2.066       .  S
Fe442       O453   2.060       .  S
Fe442       O458   2.067       .  S
Fe442       O452   1.980       .  S
Fe443       O461   2.067       .  S
Fe443       O448   2.072       .  S
Fe443       O455   2.067       .  S
Fe443       O444   2.070       .  S
Fe443       O452   1.980       .  S
O444        C451   1.270       .  A
O445        C459   1.267       .  A
O446        C451   1.271       .  A
O447        C450   1.270       .  A
O448        C460   1.270       .  A
O449        C462   1.268       .  A
C450        C765   1.484       .  S
C450        O455   1.269       .  A
C451        C597   1.487       .  S
O453        C456   1.268       .  A
O454        C456   1.271       .  A
C456        C654   1.486       .  S
O457        C462   1.269       .  A
O458        C460   1.269       .  A
C459        C693   1.480       .  S
C459        O461   1.269       .  A
C460        C621   1.485       .  S
C462        C669   1.484       .  S
C463        N464   1.363       .  A
C463        N468   1.367       .  A
C463        C573   1.492   1_556  S
N464        C465   1.357       .  A
C465        N466   1.356       .  A
C465        C473   1.469       .  S
N466        C467   1.356       .  A
C467        N468   1.362       .  A
C467        C497   1.475       .  S
C469        N470   1.363       .  A
C469        C630   1.488       .  S
N470       C1279   1.357       .  A
C471       N1278   1.357   1_455  A
C471        C477   1.467       .  S
N472        C473   1.355       .  A
C473       N1282   1.361   1_455  A
N474       C1281   1.361       .  A
C475        N476   1.364       .  A
C475        N480   1.360       .  A
C475        C549   1.487       .  S
N476        C477   1.360       .  A
C477        N478   1.355       .  A
N478        C479   1.354       .  A
C479        N480   1.356       .  A
C479        C483   1.462       .  S
C481        N482   1.359       .  A
C481        C645   1.485       .  S
N482        C483   1.355       .  A
N484        C485   1.356       .  A
C485        N486   1.360       .  A
C485        C489   1.467       .  S
C487        N488   1.362       .  A
C487        N492   1.366       .  A
C487        C534   1.490       .  S
N488        C489   1.358       .  A
C489        N490   1.356       .  A
N490        C491   1.355       .  A
C491        N492   1.360       .  A
C491        C495   1.473       .  S
C493        N494   1.365       .  A
C493        N498   1.366       .  A
C493        C606   1.494       .  S
N494        C495   1.360       .  A
C495        N496   1.357       .  A
N496        C497   1.357       .  A
C497        N498   1.360       .  A
Fe499       O515   2.066       .  S
Fe499       O505   2.077       .  S
Fe499       O512   2.075       .  S
Fe499       O504   2.067       .  S
Fe499       O510   1.982       .  S
Fe500       O503   2.073       .  S
Fe500       O507   2.081       .  S
Fe500       O511   2.072       .  S
Fe500       O516   2.087       .  S
Fe500       O510   1.983       .  S
Fe501       O519   2.061       .  S
Fe501       O506   2.072       .  S
Fe501       O513   2.071       .  S
Fe501       O502   2.069       .  S
Fe501       O510   1.978       .  S
O502        C509   1.268       .  A
O503        C517   1.270       .  A
O504        C509   1.268       .  A
O505        C508   1.272       .  A
O506        C518   1.272       .  A
O507        C520   1.271       .  A
C508        C582   1.487       .  S
C508        O513   1.271       .  A
C509        C750   1.487       .  S
O511        C514   1.270       .  A
O512        C514   1.272       .  A
C514        C798   1.490       .  S
O515        C520   1.268       .  A
O516        C518   1.273       .  A
C517        C558   1.490       .  S
C517        O519   1.266       .  A
C518        C726   1.498       .  S
C520        C525   1.496       .  S
C521        C522   1.404       .  A
C521        C526   1.402       .  A
C521        H531   1.084       .  S
C522        C527   1.491       .  S
C522        C523   1.413       .  A
C523        C524   1.403       .  A
C523        S528   1.804       .  S
C524        C525   1.410       .  A
C524        H529   1.083       .  S
C525        C526   1.418       .  A
C526        S530   1.801       .  S
C527        C532   1.411       .  A
C527        C536   1.405       .  A
S528        H544   1.406       .  S
S530        H541   1.408       .  S
C532        C533   1.403       .  A
C532        S537   1.808       .  S
C533        C534   1.406   1_554  A
C533        H538   1.082       .  S
C534        C535   1.418       .  A
C535        C536   1.405   1_556  A
C535        S539   1.803       .  S
C536        H540   1.083       .  S
S537        H542   1.406       .  S
S539        H543   1.407       .  S
C545        C546   1.402       .  A
C545       C1358   1.402   1_554  A
C545        H555   1.084       .  S
C546        C551   1.484       .  S
C546       C1355   1.412       .  A
C547       C1354   1.412       .  A
C547        C548   1.398       .  A
C547        S552   1.805       .  S
C548        C549   1.406   1_654  A
C548        H553   1.083       .  S
C549        C550   1.419       .  A
C550       C1353   1.402   1_556  A
C550        S554   1.804       .  S
C551        C556   1.409       .  A
C551        C560   1.400       .  A
S552       H1376   1.406       .  S
S554        H565   1.407       .  S
C556        C557   1.405       .  A
C556        S561   1.806       .  S
C557        C558   1.407       .  A
C557        H562   1.081       .  S
C558        C559   1.420       .  A
C559        C560   1.399       .  A
C559       S1371   1.800       .  S
C560       H1372   1.084       .  S
S561        H566   1.407       .  S
S563       C1367   1.800   1_455  S
S563       H1375   1.408       .  S
H564       C1368   1.084       .  S
H567       S1371   1.408       .  S
H568       S1360   1.406       .  S
C569       C1378   1.402   1_455  A
C569        C574   1.403       .  A
C569        H579   1.083       .  S
C570        C575   1.488       .  S
C570       C1377   1.402       .  A
C570        C571   1.413       .  A
C571       C1380   1.404       .  A
C571        S576   1.805       .  S
C572       C1379   1.404       .  A
C572        C573   1.408   1_655  A
C572       H1385   1.083   1_554  S
C573        C574   1.418       .  A
C574        S578   1.802       .  S
C575        C580   1.410       .  A
C575        C584   1.403       .  A
S576        H592   1.405       .  S
H577       C1380   1.083   1_556  S
S578        H589   1.408       .  S
C580        C581   1.406       .  A
C580        S585   1.806       .  S
C581        C582   1.406       .  A
C581        H586   1.083       .  S
C582        C583   1.417       .  A
C583        C584   1.403       .  A
C583        S587   1.804       .  S
C584       H1396   1.084       .  S
S585        H590   1.407       .  S
S587        H591   1.407       .  S
H588       C1392   1.084   1_455  S
C593        C594   1.404       .  A
C593        C598   1.404       .  A
C593        H603   1.083       .  S
C594        C599   1.488       .  S
C594        C595   1.414       .  A
C595        C596   1.401       .  A
C595        S600   1.805       .  S
C596        C597   1.406       .  A
C596        H601   1.083       .  S
C597        C598   1.416       .  A
C598        S602   1.802       .  S
C599        C604   1.410       .  A
C599        C608   1.400       .  A
S600        H616   1.405       .  S
S602        H613   1.407       .  S
C604        C605   1.408       .  A
C604        S609   1.806       .  S
C605        C606   1.409       .  A
C605        H610   1.083       .  S
C606        C607   1.420       .  A
C607        C608   1.401       .  A
C607        S611   1.802       .  S
C608        H612   1.084       .  S
S609        H614   1.407       .  S
S611        H615   1.407       .  S
C617        C618   1.402       .  A
C617        C622   1.401       .  A
C617        H627   1.084       .  S
C618        C623   1.484       .  S
C618        C619   1.413       .  A
C619        C620   1.402       .  A
C619        S624   1.804       .  S
C620        C621   1.405       .  A
C620        H625   1.084       .  S
C621        C622   1.418       .  A
C622        S626   1.804       .  S
C623        C628   1.408       .  A
C623        C632   1.403       .  A
S624        H640   1.405       .  S
S626        H637   1.407       .  S
C628        C629   1.402       .  A
C628        S633   1.808       .  S
C629        C630   1.408       .  A
C629        H634   1.082       .  S
C630        C631   1.416       .  A
C631        C632   1.404       .  A
C631        S635   1.802   1_565  S
C632        H636   1.084       .  S
S633        H638   1.407       .  S
S635        H639   1.407   1_545  S
C641        C642   1.401       .  A
C641        C646   1.397       .  A
C641        H651   1.084       .  S
C642        C647   1.485       .  S
C642        C643   1.413       .  A
C643        C644   1.401       .  A
C643        S648   1.804       .  S
C644        C645   1.405       .  A
C645        C646   1.420       .  A
C646        S650   1.804       .  S
C647        C652   1.411       .  A
C647        C656   1.401       .  A
S648        H664   1.406       .  S
S650        H661   1.407       .  S
C652        C653   1.405       .  A
C652        S657   1.807       .  S
C653        C654   1.407       .  A
C653        H658   1.081       .  S
C654        C655   1.418       .  A
C655        C656   1.397       .  A
C655        S659   1.803       .  S
C656        H660   1.084       .  S
S657        H662   1.407       .  S
S659        H663   1.408       .  S
C665        C666   1.404       .  A
C665        C670   1.401       .  A
C665        H675   1.083       .  S
C666        C671   1.487       .  S
C666        C667   1.414       .  A
C667        C668   1.401       .  A
C667        S672   1.804       .  S
C668        C669   1.405       .  A
C668        H673   1.083       .  S
C669        C670   1.416       .  A
C670        S674   1.804       .  S
C671        C676   1.410       .  A
C671        C680   1.403       .  A
S672        H688   1.406       .  S
S674        H685   1.408       .  S
C676        C677   1.403       .  A
C676        S681   1.808       .  S
C677        C678   1.408       .  A
C678        C679   1.418       .  A
C679        C680   1.403       .  A
C679        S683   1.802       .  S
C680        H684   1.083       .  S
S683        H687   1.407       .  S
C689        C690   1.404       .  A
C689        C694   1.400       .  A
C689        H699   1.083       .  S
C690        C695   1.484       .  S
C690        C691   1.413       .  A
C691        C692   1.399       .  A
C691        S696   1.804       .  S
C692        C693   1.405       .  A
C692        H697   1.083       .  S
C693        C694   1.414       .  A
C694        S698   1.804       .  S
C695        C700   1.410       .  A
C695        C704   1.403       .  A
S696        H712   1.406       .  S
S698        H709   1.408       .  S
C700        C701   1.402       .  A
C700        S705   1.808       .  S
C701        C702   1.407       .  A
C701        H706   1.082       .  S
C702        C703   1.417       .  A
C703        C704   1.401       .  A
C704        H708   1.084       .  S
S705        H710   1.407       .  S
S707        H711   1.407       .  S
C713       C1522   1.407   1_455  A
C713        C718   1.411       .  A
C713        H723   1.083       .  S
C714        C719   1.494       .  S
C714       C1521   1.407       .  A
C714        C715   1.412       .  A
C715        C716   1.401       .  A
C715        S720   1.804       .  S
C716       C1525   1.406       .  A
C716        H721   1.084       .  S
C717       C1524   1.406       .  A
C717        C718   1.414       .  A
C718        S722   1.806       .  S
C719        C724   1.410       .  A
C719        C728   1.404       .  A
S720        H736   1.406       .  S
S722        H733   1.407       .  S
C724        C725   1.407       .  A
C724       S1537   1.807       .  S
C725        C726   1.410       .  A
C725        H730   1.082       .  S
C726        C727   1.420       .  A
C727        C728   1.406       .  A
C727        S731   1.803       .  S
C728        H732   1.084       .  S
S729       C1532   1.807       .  S
S729        H734   1.407       .  S
S731        H735   1.407       .  S
C737        C738   1.406       .  A
C737        C742   1.405       .  A
C737        H747   1.084       .  S
C738        C743   1.486       .  S
C738       C1547   1.411       .  A
C739       C1546   1.411   1_455  A
C739        C740   1.397       .  A
C739        S744   1.804       .  S
C740        C741   1.406       .  A
C740        H745   1.084       .  S
C741       C1550   1.415   1_455  A
C742       C1549   1.415       .  A
C742        S746   1.802       .  S
C743        C748   1.410       .  A
C743        C752   1.403       .  A
S744        H760   1.406       .  S
S746        H757   1.407       .  S
C748        C749   1.404       .  A
C748        S753   1.808       .  S
C749        C750   1.407       .  A
C749        H754   1.083       .  S
C750        C751   1.417       .  A
C751        C752   1.402       .  A
C751       S1563   1.803       .  S
C752       H1564   1.084       .  S
S753        H758   1.406       .  S
S755       C1559   1.803       .  S
S755       H1567   1.407       .  S
H756       C1560   1.084   1_455  S
H759       S1563   1.407       .  S
C761        C762   1.405       .  A
C761        C766   1.403       .  A
C761        H771   1.084       .  S
C762        C767   1.488       .  S
C762        C763   1.414       .  A
C763        C764   1.401       .  A
C763        S768   1.804       .  S
C764        C765   1.405       .  A
C764        H769   1.084       .  S
C765        C766   1.416       .  A
C766        S770   1.804       .  S
C767        C772   1.409       .  A
C767        C776   1.405       .  A
S768        H784   1.406       .  S
S770        H781   1.407       .  S
C772        C773   1.401       .  A
C772        S777   1.808       .  S
C773        C774   1.408       .  A
C773        H778   1.082       .  S
C774        C775   1.417       .  A
C775        C776   1.405       .  A
C775        S779   1.803       .  S
C776        H780   1.083       .  S
S777        H782   1.407       .  S
S779        H783   1.407       .  S
C785        C786   1.401       .  A
C785        C790   1.399       .  A
C785        H795   1.083       .  S
C786        C791   1.487       .  S
C786        C787   1.412       .  A
C787        C788   1.404       .  A
C787        S792   1.803       .  S
C788        C789   1.408       .  A
C788        H793   1.083       .  S
C789        C790   1.420       .  A
C790        S794   1.803       .  S
C791        C796   1.410       .  A
C791        C800   1.403       .  A
S792        H808   1.406       .  S
S794        H805   1.408       .  S
C796        C797   1.405       .  A
C796        S801   1.806       .  S
C797        C798   1.407       .  A
C797        H802   1.082       .  S
C798        C799   1.418       .  A
C799        C800   1.402       .  A
C799        S803   1.800       .  S
C800        H804   1.083       .  S
S801        H806   1.406       .  S
S803        H807   1.407       .  S
C809        N810   1.363       .  A
C809        N814   1.363       .  A
C809       C1193   1.491       .  S
N810        C811   1.359       .  A
C811        N812   1.356       .  A
C811        C843   1.472       .  S
N812        C813   1.357       .  A
C813        N814   1.359       .  A
C813        C819   1.469       .  S
C815        N816   1.362       .  A
C815        N820   1.364       .  A
C815       C1178   1.491       .  S
N816        C817   1.356       .  A
C817        N818   1.354       .  A
C817        C825   1.467       .  S
N818        C819   1.356       .  A
C819        N820   1.362       .  A
C821        N822   1.364       .  A
C821        N826   1.361       .  A
C821       C1145   1.487       .  S
N822        C823   1.362       .  A
C823        N824   1.357       .  A
C823        C837   1.471       .  S
N824        C825   1.355       .  A
C825        N826   1.356       .  A
C827        N828   1.364       .  A
C827        N832   1.366       .  A
C827       C1121   1.490       .  S
N828        C829   1.359       .  A
C829        N830   1.355       .  A
C829        C835   1.470       .  S
N830        C831   1.356       .  A
C831        N832   1.362       .  A
C831        C841   1.472       .  S
C833        N834   1.363       .  A
C833       N1242   1.363       .  A
C833       C1106   1.488       .  S
C835       N1240   1.357       .  A
N836       C1239   1.357   1_545  A
N836        C837   1.357       .  A
N838       C1237   1.363   1_545  A
C839        N840   1.364       .  A
C839       N1248   1.364       .  A
C839       C1082   1.491       .  S
N840        C841   1.359       .  A
C841       N1246   1.357       .  A
N842       C1245   1.357   1_545  A
N842        C843   1.356       .  A
C843        N844   1.358       .  A
N844       C1243   1.364   1_545  A
Fe845       O861   2.069       .  S
Fe845       O851   2.073       .  S
Fe845       O858   2.073       .  S
Fe845       O850   2.075       .  S
Fe845       O856   1.983       .  S
Fe846       O849   2.059       .  S
Fe846       O853   2.066       .  S
Fe846       O857   2.060       .  S
Fe846       O862   2.067       .  S
Fe846       O856   1.980       .  S
Fe847       O865   2.067       .  S
Fe847       O852   2.072       .  S
Fe847       O859   2.067       .  S
Fe847       O848   2.070       .  S
Fe847       O856   1.980       .  S
O848        C855   1.270       .  A
O849        C863   1.267       .  A
O850        C855   1.271       .  A
O851        C854   1.270       .  A
O852        C864   1.270       .  A
O853        C866   1.268       .  A
C854       C1169   1.484       .  S
C854        O859   1.269       .  A
C855       C1001   1.487       .  S
O857        C860   1.268       .  A
O858        C860   1.271       .  A
C860       C1058   1.486       .  S
O861        C866   1.269       .  A
O862        C864   1.269       .  A
C863       C1097   1.480       .  S
C863        O865   1.269       .  A
C864       C1025   1.485       .  S
C866       C1073   1.484       .  S
C867        N868   1.363       .  A
C867        N872   1.367       .  A
C867        C977   1.492   1_556  S
N868        C869   1.357       .  A
C869        N870   1.356       .  A
C869        C877   1.469       .  S
N870        C871   1.356       .  A
C871        N872   1.362       .  A
C871        C901   1.475       .  S
C873        N874   1.363       .  A
C873       N1282   1.365       .  A
C873       C1034   1.488       .  S
C875       N1280   1.355       .  A
C875        C881   1.467       .  S
N876       C1279   1.355   1_545  A
N876        C877   1.355       .  A
N878       C1277   1.365   1_545  A
C879        N880   1.364       .  A
C879        N884   1.360       .  A
C879        C953   1.487       .  S
N880        C881   1.360       .  A
C881        N882   1.355       .  A
N882        C883   1.354       .  A
C883        N884   1.356       .  A
C883        C887   1.462       .  S
C885        N886   1.359       .  A
C885       N1294   1.364       .  A
C885       C1049   1.485       .  S
N886        C887   1.355       .  A
C887       N1292   1.354       .  A
N888       C1291   1.354   1_545  A
N888        C889   1.356       .  A
C889        N890   1.360       .  A
C889        C893   1.467       .  S
N890       C1289   1.364   1_545  A
C891        N892   1.362       .  A
C891        N896   1.366       .  A
C891        C938   1.490       .  S
N892        C893   1.358       .  A
C893        N894   1.356       .  A
N894        C895   1.355       .  A
C895        N896   1.360       .  A
C895        C899   1.473       .  S
C897        N898   1.365       .  A
C897        N902   1.366       .  A
C897       C1010   1.494       .  S
N898        C899   1.360       .  A
C899        N900   1.357       .  A
N900        C901   1.357       .  A
C901        N902   1.360       .  A
Fe903       O919   2.066       .  S
Fe903       O909   2.077       .  S
Fe903       O916   2.075       .  S
Fe903       O908   2.067       .  S
Fe903       O914   1.982       .  S
Fe904       O907   2.073       .  S
Fe904       O911   2.081       .  S
Fe904       O915   2.072       .  S
Fe904       O920   2.087       .  S
Fe904       O914   1.983       .  S
Fe905       O923   2.061       .  S
Fe905       O910   2.072       .  S
Fe905       O917   2.071       .  S
Fe905       O906   2.069       .  S
Fe905       O914   1.978       .  S
O906        C913   1.268       .  A
O907        C921   1.270       .  A
O908        C913   1.268       .  A
O909        C912   1.272       .  A
O910        C922   1.272       .  A
O911        C924   1.271       .  A
C912        C986   1.487       .  S
C912        O917   1.271       .  A
C913       C1154   1.487       .  S
O915        C918   1.270       .  A
O916        C918   1.272       .  A
C918       C1202   1.490       .  S
O919        C924   1.268       .  A
O920        C922   1.273       .  A
C921        C962   1.490       .  S
C921        O923   1.266       .  A
C922       C1130   1.498       .  S
C924        C929   1.496       .  S
C925        C926   1.404       .  A
C925        C930   1.402       .  A
C925        H935   1.084       .  S
C926        C931   1.491       .  S
C926        C927   1.413       .  A
C927        C928   1.403       .  A
C927        S932   1.804       .  S
C928        C929   1.410       .  A
C928        H933   1.083       .  S
C929        C930   1.418       .  A
C930        S934   1.801       .  S
C931        C936   1.411       .  A
C931        C940   1.405       .  A
S932        H948   1.406       .  S
S934        H945   1.408       .  S
C936        C937   1.403       .  A
C936        S941   1.808       .  S
C937        C938   1.406   1_554  A
C937        H942   1.082       .  S
C938        C939   1.418       .  A
C939        C940   1.405   1_556  A
C939        S943   1.803       .  S
C940        H944   1.083       .  S
S941        H946   1.406       .  S
S943        H947   1.407       .  S
C949        C950   1.402   1_455  A
C949        H959   1.084       .  S
C950        C955   1.484       .  S
C951        C952   1.398       .  A
C951        S956   1.805       .  S
C952        C953   1.406   1_554  A
C952        H957   1.083       .  S
C953        C954   1.419       .  A
C954        S958   1.804       .  S
C955        C960   1.409       .  A
C955        C964   1.400   1_655  A
S958        H969   1.407       .  S
C960        C961   1.405       .  A
C960        S965   1.806       .  S
C961        C962   1.407       .  A
C961        H966   1.081       .  S
C962        C963   1.420       .  A
C963        C964   1.399   1_655  A
S965        H970   1.407       .  S
C973        C978   1.403       .  A
C973        H983   1.083       .  S
C974        C979   1.488       .  S
C974        C975   1.413       .  A
C975        S980   1.805       .  S
C976        C977   1.408       .  A
C977        C978   1.418       .  A
C978        S982   1.802       .  S
C979        C984   1.410       .  A
C979        C988   1.403       .  A
S980        H996   1.405       .  S
S982        H993   1.408       .  S
C984        C985   1.406       .  A
C984        S989   1.806       .  S
C985        C986   1.406       .  A
C985        H990   1.083       .  S
C986        C987   1.417       .  A
C987        C988   1.403       .  A
C987        S991   1.804       .  S
S989        H994   1.407       .  S
S991        H995   1.407       .  S
C997        C998   1.404       .  A
C997       C1002   1.404       .  A
C997       H1007   1.083       .  S
C998       C1003   1.488       .  S
C998        C999   1.414       .  A
C999       C1000   1.401       .  A
C999       S1004   1.805       .  S
C1000      C1001   1.406       .  A
C1000      H1005   1.083       .  S
C1001      C1002   1.416       .  A
C1002      S1006   1.802       .  S
C1003      C1008   1.410       .  A
C1003      C1012   1.400       .  A
S1004      H1020   1.405       .  S
S1006      H1017   1.407       .  S
C1008      C1009   1.408       .  A
C1008      S1013   1.806       .  S
C1009      C1010   1.409       .  A
C1009      H1014   1.083       .  S
C1010      C1011   1.420       .  A
C1011      C1012   1.401       .  A
C1011      S1015   1.802       .  S
C1012      H1016   1.084       .  S
S1013      H1018   1.407       .  S
S1015      H1019   1.407       .  S
C1021      C1022   1.402       .  A
C1021      C1026   1.401       .  A
C1021      H1031   1.084       .  S
C1022      C1027   1.484       .  S
C1022      C1023   1.413       .  A
C1023      C1024   1.402       .  A
C1023      S1028   1.804       .  S
C1024      C1025   1.405       .  A
C1024      H1029   1.084       .  S
C1025      C1026   1.418       .  A
C1026      S1030   1.804       .  S
C1027      C1032   1.408       .  A
C1027      C1036   1.403       .  A
S1028      H1044   1.405       .  S
S1030      H1041   1.407       .  S
C1032      C1033   1.402       .  A
C1032      S1037   1.808       .  S
C1033      C1034   1.408       .  A
C1033      H1038   1.082       .  S
C1034      C1035   1.416       .  A
C1035      C1036   1.404       .  A
C1035      S1039   1.802       .  S
C1036      H1040   1.084       .  S
S1037      H1042   1.407       .  S
S1039      H1043   1.407       .  S
C1045      C1046   1.401       .  A
C1045      C1050   1.397       .  A
C1045      H1055   1.084       .  S
C1046      C1051   1.485       .  S
C1046      C1047   1.413       .  A
C1047      C1048   1.401       .  A
C1047      S1052   1.804       .  S
C1048      C1049   1.405       .  A
C1048      H1457   1.084       .  S
C1049      C1050   1.420       .  A
C1050      S1054   1.804       .  S
C1051      C1056   1.411       .  A
C1051      C1060   1.401       .  A
S1052      H1068   1.406       .  S
H1053      C1452   1.084       .  S
S1054      H1065   1.407       .  S
C1056      C1057   1.405       .  A
C1056      S1061   1.807       .  S
C1057      C1058   1.407       .  A
C1057      H1062   1.081       .  S
C1058      C1059   1.418       .  A
C1059      C1060   1.397       .  A
C1059      S1063   1.803       .  S
C1060      H1064   1.084       .  S
S1061      H1066   1.407       .  S
S1063      H1067   1.408       .  S
C1069      C1070   1.404       .  A
C1069      C1074   1.401       .  A
C1069      H1079   1.083       .  S
C1070      C1075   1.487       .  S
C1070      C1071   1.414       .  A
C1071      C1072   1.401       .  A
C1071      S1076   1.804       .  S
C1072      C1073   1.405       .  A
C1072      H1077   1.083       .  S
C1073      C1074   1.416       .  A
C1074      S1078   1.804       .  S
C1075      C1080   1.410       .  A
C1075      C1084   1.403       .  A
S1076      H1092   1.406       .  S
S1078      H1089   1.408       .  S
C1080      C1081   1.403       .  A
C1080      S1085   1.808       .  S
C1081      C1082   1.408       .  A
C1081      H1490   1.082       .  S
C1082      C1083   1.418       .  A
C1083      C1084   1.403       .  A
C1083      S1087   1.802       .  S
C1084      H1088   1.083       .  S
S1085      H1494   1.406       .  S
H1086      C1485   1.082   1_545  S
S1087      H1091   1.407       .  S
H1090      S1489   1.406   1_545  S
C1093      C1094   1.404       .  A
C1093      C1098   1.400       .  A
C1093      H1103   1.083       .  S
C1094      C1099   1.484       .  S
C1094      C1095   1.413       .  A
C1095      C1096   1.399       .  A
C1095      S1100   1.804       .  S
C1096      C1097   1.405       .  A
C1096      H1101   1.083       .  S
C1097      C1098   1.414       .  A
C1098      S1102   1.804       .  S
C1099      C1104   1.410       .  A
C1099      C1108   1.403       .  A
S1100      H1116   1.406       .  S
S1102      H1113   1.408       .  S
C1104      C1105   1.402       .  A
C1104      S1109   1.808       .  S
C1105      C1106   1.407       .  A
C1105      H1110   1.082       .  S
C1106      C1107   1.417       .  A
C1107      C1108   1.401       .  A
C1107      S1515   1.802       .  S
C1108      H1112   1.083       .  S
S1109      H1114   1.407       .  S
S1111      C1511   1.802   1_545  S
S1111      H1115   1.407       .  S
C1117      C1122   1.411       .  A
C1117      H1127   1.083       .  S
C1118      C1123   1.494       .  S
C1118      C1119   1.412       .  A
C1119      C1120   1.401   1_655  A
C1119      S1124   1.804       .  S
C1120      H1125   1.084       .  S
C1121      C1122   1.414       .  A
C1122      S1126   1.806       .  S
C1123      C1128   1.410   1_655  A
C1123      C1132   1.404       .  A
S1124      H1140   1.406       .  S
S1126      H1137   1.407       .  S
C1128      C1129   1.407   1_455  A
C1129      C1130   1.410       .  A
C1129      H1134   1.082   1_655  S
C1130      C1131   1.420       .  A
C1131      C1132   1.406       .  A
C1131      S1135   1.803       .  S
C1132      H1136   1.084       .  S
S1133      H1138   1.407       .  S
S1135      H1139   1.407       .  S
C1141      C1142   1.406       .  A
C1141      C1146   1.405       .  A
C1141      H1151   1.084       .  S
C1142      C1147   1.486       .  S
C1143      C1144   1.397       .  A
C1143      S1148   1.804       .  S
C1144      C1145   1.406       .  A
C1144      H1149   1.084       .  S
C1146      S1150   1.802       .  S
C1147      C1152   1.410       .  A
C1147      C1156   1.403       .  A
S1148      H1164   1.406       .  S
S1150      H1161   1.407       .  S
C1152      C1153   1.404       .  A
C1152      S1157   1.808       .  S
C1153      C1154   1.407       .  A
C1153      H1158   1.083       .  S
C1154      C1155   1.417       .  A
C1155      C1156   1.402       .  A
S1157      H1162   1.406       .  S
C1165      C1166   1.405       .  A
C1165      C1170   1.403       .  A
C1165      H1175   1.084       .  S
C1166      C1171   1.488       .  S
C1166      C1167   1.414       .  A
C1167      C1168   1.401       .  A
C1167      S1172   1.804       .  S
C1168      C1169   1.405       .  A
C1168      H1173   1.084       .  S
C1169      C1170   1.416       .  A
C1170      S1174   1.804       .  S
C1171      C1176   1.409       .  A
C1171      C1180   1.405       .  A
S1172      H1188   1.406       .  S
S1174      H1185   1.407       .  S
C1176      C1177   1.401       .  A
C1176      S1181   1.808       .  S
C1177      C1178   1.408       .  A
C1177      H1182   1.082       .  S
C1178      C1179   1.417       .  A
C1179      C1180   1.405       .  A
C1179      S1183   1.803       .  S
C1180      H1184   1.083       .  S
S1181      H1186   1.407       .  S
S1183      H1187   1.407       .  S
C1189      C1190   1.401       .  A
C1189      C1194   1.399       .  A
C1189      H1199   1.083       .  S
C1190      C1195   1.487       .  S
C1190      C1191   1.412       .  A
C1191      C1192   1.404       .  A
C1191      S1196   1.803       .  S
C1192      C1193   1.408       .  A
C1192      H1197   1.083       .  S
C1193      C1194   1.420       .  A
C1194      S1198   1.803       .  S
C1195      C1200   1.410       .  A
C1195      C1204   1.403       .  A
S1196      H1212   1.406       .  S
S1198      H1209   1.408       .  S
C1200      C1201   1.405       .  A
C1200      S1205   1.806       .  S
C1201      C1202   1.407       .  A
C1201      H1206   1.082       .  S
C1202      C1203   1.418       .  A
C1203      C1204   1.402       .  A
C1203      S1207   1.800       .  S
C1204      H1208   1.083       .  S
S1205      H1210   1.406       .  S
S1207      H1211   1.407       .  S
C1213      N1214   1.363       .  A
C1213      N1218   1.363       .  A
C1213      C1597   1.491       .  S
N1214      C1215   1.359       .  A
C1215      N1216   1.356       .  A
C1215      C1247   1.472       .  S
N1216      C1217   1.357       .  A
C1217      N1218   1.359       .  A
C1217      C1223   1.469       .  S
C1219      N1220   1.362       .  A
C1219      N1224   1.364       .  A
C1219      C1582   1.491       .  S
N1220      C1221   1.356       .  A
C1221      N1222   1.354       .  A
C1221      C1229   1.467       .  S
N1222      C1223   1.356       .  A
C1223      N1224   1.362       .  A
C1225      N1226   1.364       .  A
C1225      N1230   1.361       .  A
C1225      C1549   1.487       .  S
N1226      C1227   1.362       .  A
C1227      N1228   1.357       .  A
C1227      C1241   1.471       .  S
N1228      C1229   1.355       .  A
C1229      N1230   1.356       .  A
C1231      N1232   1.364       .  A
C1231      N1236   1.366       .  A
C1231      C1525   1.490       .  S
N1232      C1233   1.359       .  A
C1233      N1234   1.355       .  A
C1233      C1239   1.470       .  S
N1234      C1235   1.356       .  A
C1235      N1236   1.362       .  A
C1235      C1245   1.472       .  S
C1237      N1238   1.363       .  A
C1237      C1510   1.488       .  S
N1240      C1241   1.357       .  A
C1243      N1244   1.364       .  A
C1243      C1486   1.491       .  S
N1244      C1245   1.359       .  A
N1246      C1247   1.356       .  A
C1247      N1248   1.358       .  A
Fe1249     O1265   2.069       .  S
Fe1249     O1255   2.073       .  S
Fe1249     O1262   2.073       .  S
Fe1249     O1254   2.075       .  S
Fe1249     O1260   1.983       .  S
Fe1250     O1253   2.059       .  S
Fe1250     O1257   2.066       .  S
Fe1250     O1261   2.060       .  S
Fe1250     O1266   2.067       .  S
Fe1250     O1260   1.980       .  S
Fe1251     O1269   2.067       .  S
Fe1251     O1256   2.072       .  S
Fe1251     O1263   2.067       .  S
Fe1251     O1252   2.070       .  S
Fe1251     O1260   1.980       .  S
O1252      C1259   1.270       .  A
O1253      C1267   1.267       .  A
O1254      C1259   1.271       .  A
O1255      C1258   1.270       .  A
O1256      C1268   1.270       .  A
O1257      C1270   1.268       .  A
C1258      C1573   1.484       .  S
C1258      O1263   1.269       .  A
C1259      C1405   1.487       .  S
O1261      C1264   1.268       .  A
O1262      C1264   1.271       .  A
C1264      C1462   1.486       .  S
O1265      C1270   1.269       .  A
O1266      C1268   1.269       .  A
C1267      C1501   1.480       .  S
C1267      O1269   1.269       .  A
C1268      C1429   1.485       .  S
C1270      C1477   1.484       .  S
C1271      N1272   1.363       .  A
C1271      N1276   1.367       .  A
C1271      C1381   1.492   1_556  S
N1272      C1273   1.357       .  A
C1273      N1274   1.356       .  A
C1273      C1281   1.469       .  S
N1274      C1275   1.356       .  A
C1275      N1276   1.362       .  A
C1275      C1305   1.475       .  S
C1277      N1278   1.363       .  A
C1277      C1438   1.488       .  S
C1279      C1285   1.467       .  S
N1280      C1281   1.355       .  A
C1283      N1284   1.364       .  A
C1283      N1288   1.360       .  A
C1283      C1357   1.487       .  S
N1284      C1285   1.360       .  A
C1285      N1286   1.355       .  A
N1286      C1287   1.354       .  A
C1287      N1288   1.356       .  A
C1287      C1291   1.462       .  S
C1289      N1290   1.359       .  A
C1289      C1453   1.485       .  S
N1290      C1291   1.355       .  A
N1292      C1293   1.356       .  A
C1293      N1294   1.360       .  A
C1293      C1297   1.467       .  S
C1295      N1296   1.362       .  A
C1295      N1300   1.366       .  A
C1295      C1342   1.490       .  S
N1296      C1297   1.358       .  A
C1297      N1298   1.356       .  A
N1298      C1299   1.355       .  A
C1299      N1300   1.360       .  A
C1299      C1303   1.473       .  S
C1301      N1302   1.365       .  A
C1301      N1306   1.366       .  A
C1301      C1414   1.494       .  S
N1302      C1303   1.360       .  A
C1303      N1304   1.357       .  A
N1304      C1305   1.357       .  A
C1305      N1306   1.360       .  A
Fe1307     O1323   2.066       .  S
Fe1307     O1313   2.077       .  S
Fe1307     O1320   2.075       .  S
Fe1307     O1312   2.067       .  S
Fe1307     O1318   1.982       .  S
Fe1308     O1311   2.073       .  S
Fe1308     O1315   2.081       .  S
Fe1308     O1319   2.072       .  S
Fe1308     O1324   2.087       .  S
Fe1308     O1318   1.983       .  S
Fe1309     O1327   2.061       .  S
Fe1309     O1314   2.072       .  S
Fe1309     O1321   2.071       .  S
Fe1309     O1310   2.069       .  S
Fe1309     O1318   1.978       .  S
O1310      C1317   1.268       .  A
O1311      C1325   1.270       .  A
O1312      C1317   1.268       .  A
O1313      C1316   1.272       .  A
O1314      C1326   1.272       .  A
O1315      C1328   1.271       .  A
C1316      C1390   1.487       .  S
C1316      O1321   1.271       .  A
C1317      C1558   1.487       .  S
O1319      C1322   1.270       .  A
O1320      C1322   1.272       .  A
C1322      C1606   1.490       .  S
O1323      C1328   1.268       .  A
O1324      C1326   1.273       .  A
C1325      C1366   1.490       .  S
C1325      O1327   1.266       .  A
C1326      C1534   1.498       .  S
C1328      C1333   1.496       .  S
C1329      C1330   1.404       .  A
C1329      C1334   1.402       .  A
C1329      H1339   1.084       .  S
C1330      C1335   1.491       .  S
C1330      C1331   1.413       .  A
C1331      C1332   1.403       .  A
C1331      S1336   1.804       .  S
C1332      C1333   1.410       .  A
C1332      H1337   1.083       .  S
C1333      C1334   1.418       .  A
C1334      S1338   1.801       .  S
C1335      C1340   1.411       .  A
C1335      C1344   1.405       .  A
S1336      H1352   1.406       .  S
S1338      H1349   1.408       .  S
C1340      C1341   1.403       .  A
C1340      S1345   1.808       .  S
C1341      C1342   1.406   1_554  A
C1341      H1346   1.082       .  S
C1342      C1343   1.418       .  A
C1343      C1344   1.405   1_556  A
C1343      S1347   1.803       .  S
C1344      H1348   1.083       .  S
S1345      H1350   1.406       .  S
S1347      H1351   1.407       .  S
C1353      C1354   1.402   1_455  A
C1353      H1363   1.084       .  S
C1354      C1359   1.484       .  S
C1355      C1356   1.398       .  A
C1355      S1360   1.805       .  S
C1356      C1357   1.406   1_554  A
C1356      H1361   1.083       .  S
C1357      C1358   1.419       .  A
C1358      S1362   1.804       .  S
C1359      C1364   1.409       .  A
C1359      C1368   1.400   1_655  A
S1362      H1373   1.407       .  S
C1364      C1365   1.405       .  A
C1364      S1369   1.806       .  S
C1365      C1366   1.407       .  A
C1365      H1370   1.081       .  S
C1366      C1367   1.420       .  A
C1367      C1368   1.399   1_655  A
S1369      H1374   1.407       .  S
C1377      C1382   1.403       .  A
C1377      H1387   1.083       .  S
C1378      C1383   1.488       .  S
C1378      C1379   1.413       .  A
C1379      S1384   1.805       .  S
C1380      C1381   1.408       .  A
C1381      C1382   1.418       .  A
C1382      S1386   1.802       .  S
C1383      C1388   1.410       .  A
C1383      C1392   1.403       .  A
S1384      H1400   1.405       .  S
S1386      H1397   1.408       .  S
C1388      C1389   1.406       .  A
C1388      S1393   1.806       .  S
C1389      C1390   1.406       .  A
C1389      H1394   1.083       .  S
C1390      C1391   1.417       .  A
C1391      C1392   1.403       .  A
C1391      S1395   1.804       .  S
S1393      H1398   1.407       .  S
S1395      H1399   1.407       .  S
C1401      C1402   1.404       .  A
C1401      C1406   1.404       .  A
C1401      H1411   1.083       .  S
C1402      C1407   1.488       .  S
C1402      C1403   1.414       .  A
C1403      C1404   1.401       .  A
C1403      S1408   1.805       .  S
C1404      C1405   1.406       .  A
C1404      H1409   1.083       .  S
C1405      C1406   1.416       .  A
C1406      S1410   1.802       .  S
C1407      C1412   1.410       .  A
C1407      C1416   1.400       .  A
S1408      H1424   1.405       .  S
S1410      H1421   1.407       .  S
C1412      C1413   1.408       .  A
C1412      S1417   1.806       .  S
C1413      C1414   1.409       .  A
C1413      H1418   1.083       .  S
C1414      C1415   1.420       .  A
C1415      C1416   1.401       .  A
C1415      S1419   1.802       .  S
C1416      H1420   1.084       .  S
S1417      H1422   1.407       .  S
S1419      H1423   1.407       .  S
C1425      C1426   1.402       .  A
C1425      C1430   1.401       .  A
C1425      H1435   1.084       .  S
C1426      C1431   1.484       .  S
C1426      C1427   1.413       .  A
C1427      C1428   1.402       .  A
C1427      S1432   1.804       .  S
C1428      C1429   1.405       .  A
C1428      H1433   1.084       .  S
C1429      C1430   1.418       .  A
C1430      S1434   1.804       .  S
C1431      C1436   1.408       .  A
C1431      C1440   1.403       .  A
S1432      H1448   1.405       .  S
S1434      H1445   1.407       .  S
C1436      C1437   1.402       .  A
C1436      S1441   1.808       .  S
C1437      C1438   1.408       .  A
C1437      H1442   1.082       .  S
C1438      C1439   1.416       .  A
C1439      C1440   1.404       .  A
C1439      S1443   1.802   1_565  S
C1440      H1444   1.084       .  S
S1441      H1446   1.407       .  S
S1443      H1447   1.407   1_545  S
C1449      C1450   1.401       .  A
C1449      C1454   1.397       .  A
C1449      H1459   1.084       .  S
C1450      C1455   1.485       .  S
C1450      C1451   1.413       .  A
C1451      C1452   1.401       .  A
C1451      S1456   1.804       .  S
C1452      C1453   1.405       .  A
C1453      C1454   1.420       .  A
C1454      S1458   1.804       .  S
C1455      C1460   1.411       .  A
C1455      C1464   1.401       .  A
S1456      H1472   1.406       .  S
S1458      H1469   1.407       .  S
C1460      C1461   1.405       .  A
C1460      S1465   1.807       .  S
C1461      C1462   1.407       .  A
C1461      H1466   1.081       .  S
C1462      C1463   1.418       .  A
C1463      C1464   1.397       .  A
C1463      S1467   1.803       .  S
C1464      H1468   1.084       .  S
S1465      H1470   1.407       .  S
S1467      H1471   1.408       .  S
C1473      C1474   1.404       .  A
C1473      C1478   1.401       .  A
C1473      H1483   1.083       .  S
C1474      C1479   1.487       .  S
C1474      C1475   1.414       .  A
C1475      C1476   1.401       .  A
C1475      S1480   1.804       .  S
C1476      C1477   1.405       .  A
C1476      H1481   1.083       .  S
C1477      C1478   1.416       .  A
C1478      S1482   1.804       .  S
C1479      C1484   1.410       .  A
C1479      C1488   1.403       .  A
S1480      H1496   1.406       .  S
S1482      H1493   1.408       .  S
C1484      C1485   1.403       .  A
C1484      S1489   1.808       .  S
C1485      C1486   1.408       .  A
C1486      C1487   1.418       .  A
C1487      C1488   1.403       .  A
C1487      S1491   1.802       .  S
C1488      H1492   1.083       .  S
S1491      H1495   1.407       .  S
C1497      C1498   1.404       .  A
C1497      C1502   1.400       .  A
C1497      H1507   1.083       .  S
C1498      C1503   1.484       .  S
C1498      C1499   1.413       .  A
C1499      C1500   1.399       .  A
C1499      S1504   1.804       .  S
C1500      C1501   1.405       .  A
C1500      H1505   1.083       .  S
C1501      C1502   1.414       .  A
C1502      S1506   1.804       .  S
C1503      C1508   1.410       .  A
C1503      C1512   1.403       .  A
S1504      H1520   1.406       .  S
S1506      H1517   1.408       .  S
C1508      C1509   1.402       .  A
C1508      S1513   1.808       .  S
C1509      C1510   1.407       .  A
C1509      H1514   1.082       .  S
C1510      C1511   1.417       .  A
C1511      C1512   1.401       .  A
C1512      H1516   1.084       .  S
S1513      H1518   1.407       .  S
S1515      H1519   1.407       .  S
C1521      C1526   1.411       .  A
C1521      H1531   1.083       .  S
C1522      C1527   1.494       .  S
C1522      C1523   1.412       .  A
C1523      C1524   1.401   1_655  A
C1523      S1528   1.804       .  S
C1524      H1529   1.084       .  S
C1525      C1526   1.414       .  A
C1526      S1530   1.806       .  S
C1527      C1532   1.410   1_655  A
C1527      C1536   1.404       .  A
S1528      H1544   1.406       .  S
S1530      H1541   1.407       .  S
C1532      C1533   1.407   1_455  A
C1533      C1534   1.410       .  A
C1533      H1538   1.082   1_655  S
C1534      C1535   1.420       .  A
C1535      C1536   1.406       .  A
C1535      S1539   1.803       .  S
C1536      H1540   1.084       .  S
S1537      H1542   1.407       .  S
S1539      H1543   1.407       .  S
C1545      C1546   1.406       .  A
C1545      C1550   1.405       .  A
C1545      H1555   1.084       .  S
C1546      C1551   1.486       .  S
C1547      C1548   1.397       .  A
C1547      S1552   1.804       .  S
C1548      C1549   1.406       .  A
C1548      H1553   1.084       .  S
C1550      S1554   1.802       .  S
C1551      C1556   1.410       .  A
C1551      C1560   1.403       .  A
S1552      H1568   1.406       .  S
S1554      H1565   1.407       .  S
C1556      C1557   1.404       .  A
C1556      S1561   1.808       .  S
C1557      C1558   1.407       .  A
C1557      H1562   1.083       .  S
C1558      C1559   1.417       .  A
C1559      C1560   1.402       .  A
S1561      H1566   1.406       .  S
C1569      C1570   1.405       .  A
C1569      C1574   1.403       .  A
C1569      H1579   1.084       .  S
C1570      C1575   1.488       .  S
C1570      C1571   1.414       .  A
C1571      C1572   1.401       .  A
C1571      S1576   1.804       .  S
C1572      C1573   1.405       .  A
C1572      H1577   1.084       .  S
C1573      C1574   1.416       .  A
C1574      S1578   1.804       .  S
C1575      C1580   1.409       .  A
C1575      C1584   1.405       .  A
S1576      H1592   1.406       .  S
S1578      H1589   1.407       .  S
C1580      C1581   1.401       .  A
C1580      S1585   1.808       .  S
C1581      C1582   1.408       .  A
C1581      H1586   1.082       .  S
C1582      C1583   1.417       .  A
C1583      C1584   1.405       .  A
C1583      S1587   1.803       .  S
C1584      H1588   1.083       .  S
S1585      H1590   1.407       .  S
S1587      H1591   1.407       .  S
C1593      C1594   1.401       .  A
C1593      C1598   1.399       .  A
C1593      H1603   1.083       .  S
C1594      C1599   1.487       .  S
C1594      C1595   1.412       .  A
C1595      C1596   1.404       .  A
C1595      S1600   1.803       .  S
C1596      C1597   1.408       .  A
C1596      H1601   1.083       .  S
C1597      C1598   1.420       .  A
C1598      S1602   1.803       .  S
C1599      C1604   1.410       .  A
C1599      C1608   1.403       .  A
S1600      H1616   1.406       .  S
S1602      H1613   1.408       .  S
C1604      C1605   1.405       .  A
C1604      S1609   1.806       .  S
C1605      C1606   1.407       .  A
C1605      H1610   1.082       .  S
C1606      C1607   1.418       .  A
C1607      C1608   1.402       .  A
C1607      S1611   1.800       .  S
C1608      H1612   1.083       .  S
S1609      H1614   1.406       .  S
S1611      H1615   1.407       .  S
