geometry optimzed in LAMMPS
_audit_creation_date              2020-11-30 
_audit_creation_method            'lammps2cif' 
_symmetry_space_group_name_H-M    'P1' 
_symmetry_Int_Tables_number       1 
_symmetry_cell_setting            triclinic 
loop_ 
_symmetry_equiv_pos_as_xyz 
  x,y,z 
_cell_length_a                    23.652117602198867 
_cell_length_b                    23.51167678388332 
_cell_length_c                    73.81056697373619 
_cell_angle_alpha                 90.0460492857865 
_cell_angle_beta                  89.05350091678272 
_cell_angle_gamma                 89.30525142156183 
loop_ 
_atom_site_label 
_atom_site_type_symbol 
_atom_site_fract_x 
_atom_site_fract_y 
_atom_site_fract_z 
_atom_site_charge 
C1          C  0.20073632  0.73998856  0.80387516    -0.02960
In2        In  0.53053616  0.78514523  0.84373083     1.36870
C3          C  0.43552474  0.76820459  0.82651921     0.77110
O4          O  0.58455387  0.76617646  0.81898060    -0.61330
O5          O  0.59726251  0.71484909  0.84208607    -0.52240
C6          C  0.54144238  0.89792580  0.84498068     0.69780
O7          O  0.51951315  0.87228715  0.83193239    -0.47100
C8          C  0.49401965  0.75435903  0.87688027     0.74480
O9          O  0.44558061  0.81347840  0.83488655    -0.58960
O10         O  0.53688785  0.78521494  0.87468280    -0.49050
O11         O  0.47432103  0.73113873  0.82687580    -0.55390
C12         C  0.60582191  0.72130589  0.82531721     0.84660
O13         O  0.56498925  0.86523136  0.85624346    -0.57290
O14         O  0.47434309  0.73624529  0.86229594    -0.60580
In15       In  0.53106037  0.25729349  0.84847041     1.36870
C16         C  0.63038634  0.27774668  0.83350138     0.77110
O17         O  0.49409821  0.27793436  0.82131887    -0.61330
O18         O  0.45321534  0.31415232  0.84426372    -0.52240
C19         C  0.52474221  0.14407410  0.85076303     0.69780
O20         O  0.56830517  0.17046601  0.84587645    -0.47100
C21         C  0.55874704  0.29320365  0.88158017     0.74480
O22         O  0.60537002  0.23129761  0.83141463    -0.58960
O23         O  0.53239411  0.24741668  0.87942375    -0.49050
O24         O  0.60312436  0.31525032  0.84223553    -0.55390
C25         C  0.45810509  0.31328939  0.82722235     0.84660
O26         O  0.48241962  0.17601526  0.85447790    -0.57290
O27         O  0.56420092  0.32202093  0.86738113    -0.60580
C28         C  0.86500270  0.31015630  0.80863950    -0.02960
In29       In  0.10924903  0.90421624  0.70548282     1.36870
C30         C  0.04901427  0.00023474  0.70622918     0.77110
O31         O  0.19128037  0.94965766  0.70179628    -0.61330
O32         O  0.15814703  0.90899853  0.67864755    -0.52240
C33         C  0.13976969  0.86287788  0.73707801     0.69780
O34         O  0.10310855  0.90180290  0.73558822    -0.47100
C35         C  0.03871619  0.81728075  0.70179066     0.74480
O36         O  0.07289183  0.98010147  0.72002334    -0.58960
O37         O  0.09089373  0.81146439  0.69838014    -0.49050
O38         O  0.05646329  0.97163454  0.69184628    -0.55390
C39         C  0.19618050  0.94027157  0.68502926     0.84660
O40         O  0.16525577  0.84953872  0.72250396    -0.57290
O41         O  0.02306040  0.86814227  0.70395469    -0.60580
In42       In  0.95476719  0.14921731  0.70901290     1.36870
C43         C  0.01496697  0.05277153  0.70704837     0.77110
O44         O  0.86830086  0.11336577  0.70458897    -0.61330
O45         O  0.91043378  0.15029130  0.68199292    -0.52240
C46         C  0.92319558  0.19451863  0.74017054     0.69780
O47         O  0.93283710  0.14187250  0.73839611    -0.47100
C48         C  0.03336026  0.22562308  0.70387372     0.74480
O49         O  0.99493589  0.07233960  0.72175117    -0.58960
O50         O  0.98474796  0.23196821  0.69728605    -0.49050
O51         O  0.00385101  0.08215651  0.69324294    -0.55390
C52         C  0.86852035  0.12260368  0.68774828     0.84660
O53         O  0.92416144  0.22293898  0.72572735    -0.57290
O54         O  0.04155573  0.18006945  0.71239901    -0.60580
C55         C  0.36385241  0.70839863  0.94403270    -0.02960
In56       In  0.03858189  0.78553738  0.90589149     1.36870
C57         C  0.14619709  0.78199872  0.91475742     0.77110
O58         O  0.01025463  0.75787311  0.93352503    -0.61330
O59         O  0.96725160  0.72313977  0.91133697    -0.52240
C60         C  0.01704616  0.89502259  0.90831122     0.69780
O61         O  0.04879145  0.86848361  0.91894679    -0.47100
C62         C  0.06246645  0.76110785  0.87147317     0.74480
O63         O  0.12039840  0.82805141  0.91198648    -0.58960
O64         O  0.02464473  0.79713252  0.87580602    -0.49050
O65         O  0.11653275  0.73796951  0.91320307    -0.55390
C66         C  0.97452502  0.72300948  0.92821790     0.84660
O67         O  0.99003615  0.86407118  0.89748671    -0.57290
O68         O  0.08115795  0.73225867  0.88444593    -0.60580
C69         C  0.69225932  0.33498255  0.94370400    -0.02960
In70       In  0.02798037  0.24790818  0.90560418     1.36870
C71         C  0.92099361  0.27013526  0.91499584     0.77110
O72         O  0.05021681  0.28286570  0.93288229    -0.61330
O73         O  0.10816150  0.29768521  0.91143318    -0.52240
C74         C  0.04124368  0.13664022  0.90697724     0.69780
O75         O  0.99863898  0.16292614  0.91304441    -0.47100
C76         C  0.01580243  0.27689260  0.87099517     0.74480
O77         O  0.95150213  0.23586650  0.92365912    -0.58960
O78         O  0.02873050  0.31223628  0.88307450    -0.49050
O79         O  0.94586012  0.29430281  0.90200908    -0.55390
C80         C  0.09470746  0.30691791  0.92777471     0.84660
O81         O  0.08014152  0.16755117  0.90052541    -0.57290
O82         O  0.01680080  0.22586261  0.87626040    -0.60580
In83       In  0.44852455  0.89909648  0.03721907     1.36870
C84         C  0.50394113  0.99630156  0.03676829     0.77110
O85         O  0.36360407  0.94149488  0.04337797    -0.61330
O86         O  0.40641081  0.90204647  0.06512451    -0.52240
C87         C  0.41963032  0.85269269  0.00598145     0.69780
O88         O  0.45867191  0.88825738  0.00713967    -0.47100
C89         C  0.52560583  0.81857700  0.04450651     0.74480
O90         O  0.47999582  0.97705426  0.02293803    -0.58960
O91         O  0.47382245  0.81142974  0.04809763    -0.49050
O92         O  0.49731443  0.96735605  0.05097946    -0.55390
C93         C  0.36453666  0.93176493  0.06022209     0.84660
O94         O  0.39091764  0.84674870  0.02041545    -0.57290
O95         O  0.53680955  0.86581700  0.03753135    -0.60580
In96       In  0.60140796  0.13990159  0.03520790     1.36870
C97         C  0.53846991  0.04732402  0.03627089     0.77110
O98         O  0.68398508  0.09580912  0.04158748    -0.61330
O99         O  0.64001900  0.13736412  0.06324595    -0.52240
C100        C  0.63504353  0.17769389  0.00317838     0.69780
O101        O  0.58788844  0.15462080  0.00560857    -0.47100
C102        C  0.54214621  0.23580006  0.04089147     0.74480
O103        O  0.56773012  0.06077450  0.02256178    -0.58960
O104        O  0.59236055  0.22980997  0.04611273    -0.49050
O105        O  0.54209406  0.08053019  0.04958649    -0.55390
C106        C  0.68208247  0.10711325  0.05835000     0.84660
O107        O  0.66819291  0.17328154  0.01636582    -0.57290
O108        O  0.52197955  0.19223900  0.03373362    -0.60580
C109        C  0.24157055  0.20014267  0.55688680    -0.02960
In110      In  0.30359459  0.51824180  0.59782443     1.36870
C111        C  0.30113714  0.41988737  0.58113346     0.77110
O112        O  0.26318674  0.46343144  0.61791831    -0.61330
O113        O  0.28700509  0.54456061  0.62735626    -0.52240
C114        C  0.41368353  0.53059643  0.60167452     0.69780
O115        O  0.38762352  0.48635641  0.60582194    -0.47100
C116        C  0.23777535  0.58444576  0.57680962     0.74480
O117        O  0.33873406  0.45595154  0.57761491    -0.58960
O118        O  0.23450198  0.58589625  0.59387928    -0.49050
O119        O  0.26253595  0.43587705  0.59204180    -0.55390
C120        C  0.26550989  0.49684622  0.63114890     0.84660
O121        O  0.38255016  0.57183929  0.59686821    -0.57290
O122        O  0.27677446  0.55274352  0.57072294    -0.60580
In123      In  0.76639465  0.53257432  0.59589844     1.36870
C124        C  0.77559313  0.63537570  0.58197782     0.77110
O125        O  0.82647480  0.57196576  0.61517284    -0.61330
O126        O  0.76638474  0.51719583  0.62645186    -0.52240
C127        C  0.65583178  0.51495757  0.59579443     0.69780
O128        O  0.67919456  0.55843097  0.58955550    -0.47100
C129        C  0.82642052  0.46294086  0.57418509     0.74480
O130        O  0.73779032  0.62309489  0.59347529    -0.58960
O131        O  0.83259829  0.46373138  0.59110918    -0.49050
O132        O  0.80915099  0.59532559  0.57767971    -0.55390
C133        C  0.80588462  0.55127526  0.62946719     0.84660
O134        O  0.68971779  0.47727114  0.60153490    -0.57290
O135        O  0.78534989  0.49232712  0.56870563    -0.60580
C136        C  0.82665115  0.86574723  0.55464055    -0.02960
In137      In  0.40324425  0.09885565  0.45627597     1.36870
C138        C  0.50148834  0.04162416  0.45670681     0.77110
O139        O  0.36240027  0.01408300  0.45767337    -0.61330
O140        O  0.31721734  0.08082870  0.44482750    -0.52240
C141        C  0.35643980  0.13284384  0.48748489     0.69780
O142        O  0.39039060  0.09133956  0.48616923    -0.47100
C143        C  0.43721731  0.18141023  0.43363294     0.74480
O144        O  0.48331791  0.07052101  0.47004430    -0.58960
O145        O  0.41098444  0.13818334  0.42829133    -0.49050
O146        O  0.46964232  0.04208957  0.44316412    -0.55390
C147        C  0.31725710  0.03017501  0.45044285     0.84660
O148        O  0.34983984  0.16004470  0.47291472    -0.57290
O149        O  0.44278152  0.18416622  0.45061436    -0.60580
In150      In  0.65582374  0.95647937  0.45700130     1.36870
C151        C  0.55573044  0.01036287  0.45683398     0.77110
O152        O  0.68893440  0.04461406  0.45342693    -0.61330
O153        O  0.74670587  0.97700027  0.44870012    -0.52240
C154        C  0.69834721  0.92727101  0.48890526     0.69780
O155        O  0.66496711  0.96888485  0.48695292    -0.47100
C156        C  0.62813385  0.86689304  0.43664715     0.74480
O157        O  0.57782580  0.99210394  0.47118778    -0.58960
O158        O  0.65564840  0.90835438  0.43027439    -0.49050
O159        O  0.58418187  0.00018295  0.44256534    -0.55390
C160        C  0.73964164  0.02981858  0.45084440     0.84660
O161        O  0.70498413  0.89713379  0.47486687    -0.57290
O162        O  0.61793030  0.86993478  0.45346194    -0.60580
C163        C  0.23723053  0.35990209  0.69462299    -0.02960
In164      In  0.30508740  0.03833520  0.65378037     1.36870
C165        C  0.29661238  0.14130291  0.66820225     0.77110
O166        O  0.31883864  0.04251089  0.62343355    -0.61330
O167        O  0.23680682  0.05778715  0.63444325    -0.52240
C168        C  0.41649941  0.02532728  0.65169145     0.69780
O169        O  0.39124650  0.07110232  0.65523052    -0.47100
C170        C  0.23970030  0.96893369  0.67388644     0.74480
O171        O  0.31709316  0.09936388  0.67655378    -0.58960
O172        O  0.24663900  0.96181250  0.65706039    -0.49050
O173        O  0.27711148  0.12975089  0.65290342    -0.55390
C174        C  0.26877344  0.05890257  0.62061094     0.84660
O175        O  0.38440346  0.98306513  0.64963584    -0.57290
O176        O  0.27013812  0.00696751  0.68041250    -0.60580
C177        C  0.83295889  0.69490801  0.69420857    -0.02960
In178      In  0.76956547  0.02543584  0.65447336     1.36870
C179        C  0.76704169  0.91861506  0.66649721     0.77110
O180        O  0.83657547  0.98564247  0.63673305    -0.61330
O181        O  0.77697407  0.04020519  0.62414561    -0.52240
C182        C  0.65882578  0.04371106  0.65461001     0.69780
O183        O  0.68581810  0.03374003  0.66881074    -0.47100
C184        C  0.82736104  0.09607257  0.67569081     0.74480
O185        O  0.73064812  0.93763288  0.65583070    -0.58960
O186        O  0.82844713  0.10063803  0.65865509    -0.49050
O187        O  0.80606517  0.95300510  0.66972281    -0.55390
C188        C  0.81606639  0.00352669  0.62210367     0.84660
O189        O  0.68957475  0.05334288  0.64084785    -0.57290
O190        O  0.79217893  0.06094911  0.68161328    -0.60580
In191      In  0.40631849  0.44432159  0.79385784     1.36870
C192        C  0.50470558  0.50133597  0.79291085     0.77110
O193        O  0.36725350  0.52360197  0.78450021    -0.61330
O194        O  0.33866638  0.49356984  0.81002135    -0.52240
C195        C  0.35072246  0.40870006  0.76488968     0.69780
O196        O  0.40407295  0.41063471  0.76544716    -0.47100
C197        C  0.43152146  0.35554174  0.81514715     0.74480
O198        O  0.48368745  0.47908570  0.77906536    -0.58960
O199        O  0.40221357  0.39733356  0.82081081    -0.49050
O200        O  0.47579166  0.49435344  0.80719855    -0.55390
C201        C  0.33388881  0.53091048  0.79775309     0.84660
O202        O  0.32673799  0.41758307  0.78002893    -0.57290
O203        O  0.44276725  0.35674540  0.79839842    -0.60580
In204      In  0.65779467  0.58767707  0.79211465     1.36870
C205        C  0.55860130  0.53254957  0.79252855     0.77110
O206        O  0.69643869  0.50100505  0.78743395    -0.61330
O207        O  0.73522852  0.55478162  0.80636012    -0.52240
C208        C  0.70814459  0.63111734  0.76253513     0.69780
O209        O  0.66135979  0.60583389  0.76212027    -0.47100
C210        C  0.63002172  0.67621781  0.81353210     0.74480
O211        O  0.58152018  0.55073879  0.77813647    -0.58960
O212        O  0.65229256  0.63117075  0.81955342    -0.49050
O213        O  0.58585102  0.54306836  0.80664752    -0.55390
C214        C  0.73695574  0.50805181  0.79798173     0.84660
O215        O  0.72753465  0.63651021  0.77823590    -0.57290
O216        O  0.62412008  0.67681079  0.79656914    -0.60580
In217      In  0.26009427  0.02462288  0.09585522     1.36870
C218        C  0.29393583  0.12241717  0.08298900     0.77110
O219        O  0.25725608  0.08119577  0.12004402    -0.61330
O220        O  0.28725185  0.99673994  0.12402579    -0.52240
C221        C  0.14791234  0.01393864  0.09711148     0.69780
O222        O  0.17324419  0.05471155  0.08985994    -0.47100
C223        C  0.32321632  0.95788170  0.07322036     0.74480
O224        O  0.24907922  0.09901896  0.07814315    -0.58960
O225        O  0.33021427  0.95885420  0.09011828    -0.49050
O226        O  0.32394415  0.09426053  0.09384491    -0.55390
C227        C  0.27714288  0.04528303  0.13086011     0.84660
O228        O  0.18027665  0.97463124  0.10270001    -0.57290
O229        O  0.28052311  0.98576010  0.06822955    -0.60580
C230        C  0.34447977  0.35194205  0.05685011    -0.02960
In231      In  0.79030351  0.02071719  0.09375615     1.36870
C232        C  0.78748045  0.91164234  0.08450541     0.77110
O233        O  0.73993878  0.98294378  0.11627606    -0.61330
O234        O  0.79971568  0.04635743  0.12322164    -0.52240
C235        C  0.90322126  0.03035161  0.09462737     0.69780
O236        O  0.87736071  0.00309088  0.08284457    -0.47100
C237        C  0.72352887  0.08282296  0.07115173     0.74480
O238        O  0.82035347  0.94674042  0.07729511    -0.58960
O239        O  0.72045888  0.08786973  0.08810214    -0.49050
O240        O  0.75453945  0.93202067  0.09649097    -0.55390
C241        C  0.76552628  0.00876341  0.12867437     0.84660
O242        O  0.87078023  0.05956669  0.10486629    -0.57290
O243        O  0.76334762  0.05111481  0.06597316    -0.60580
C244        C  0.73266568  0.68911907  0.05980236    -0.02960
In245      In  0.15945798  0.43213026  0.96031022     1.36870
C246        C  0.06658579  0.49871718  0.96119332     0.77110
O247        O  0.19255248  0.51833134  0.95603415    -0.61330
O248        O  0.25064348  0.44991993  0.95227290    -0.52240
C249        C  0.20759605  0.40161763  0.99133262     0.69780
O250        O  0.15663668  0.41826093  0.99062443    -0.47100
C251        C  0.12406917  0.34685472  0.93963767     0.74480
O252        O  0.09149346  0.48281550  0.97538270    -0.58960
O253        O  0.15777960  0.38389980  0.93373556    -0.49050
O254        O  0.08953038  0.48127674  0.94661030    -0.55390
C255        C  0.24346428  0.50268929  0.95427642     0.84660
O256        O  0.23084137  0.39488912  0.97603259    -0.57290
O257        O  0.11278536  0.35050673  0.95636084    -0.60580
In258      In  0.91884604  0.59735730  0.96233882     1.36870
C259        C  0.01472139  0.53434763  0.96155268     0.77110
O260        O  0.86766577  0.52676992  0.97176891    -0.61330
O261        O  0.84757619  0.56008948  0.94594396    -0.52240
C262        C  0.86666607  0.63516325  0.99226884     0.69780
O263        O  0.90708227  0.59976114  0.99221328    -0.47100
C264        C  0.94893669  0.68186148  0.94070300     0.74480
O265        O  0.00159984  0.56723528  0.97448501    -0.58960
O266        O  0.91644213  0.64306289  0.93556854    -0.49050
O267        O  0.97943593  0.53413983  0.94895148    -0.55390
C268        C  0.83680187  0.52408908  0.95818201     0.84660
O269        O  0.85684286  0.65625225  0.97686412    -0.57290
O270        O  0.96228446  0.67967029  0.95720224    -0.60580
C271        C  0.32938623  0.18516468  0.19334263    -0.02960
In272      In  0.26991614  0.51376936  0.15680867     1.36870
C273        C  0.27537100  0.41475474  0.17395913     0.77110
O274        O  0.33777581  0.47845194  0.13846764    -0.61330
O275        O  0.26760167  0.51753344  0.12587048    -0.52240
C276        C  0.15830046  0.52218050  0.15288854     0.69780
O277        O  0.18660536  0.47730820  0.15034261    -0.47100
C278        C  0.32645881  0.58971837  0.17651881     0.74480
O279        O  0.23684421  0.45069269  0.17729825    -0.58960
O280        O  0.32500587  0.59248521  0.15946056    -0.49050
O281        O  0.31398760  0.43187836  0.16348054    -0.55390
C282        C  0.31172140  0.48717293  0.12396823     0.84660
O283        O  0.18767235  0.56548129  0.15639227    -0.57290
O284        O  0.29507082  0.55233469  0.18329268    -0.60580
In285      In  0.80213391  0.53115990  0.15689187     1.36870
C286        C  0.78897968  0.62725416  0.17492219     0.77110
O287        O  0.78746725  0.50592870  0.12727955    -0.61330
O288        O  0.76453397  0.58832350  0.13648142    -0.52240
C289        C  0.91372374  0.51857173  0.15208239     0.69780
O290        O  0.88857707  0.56552015  0.15357115    -0.47100
C291        C  0.73158842  0.46633974  0.17723208     0.74480
O292        O  0.82436788  0.59012760  0.17997590    -0.58960
O293        O  0.72889575  0.46898310  0.16022822    -0.49050
O294        O  0.76078553  0.61370064  0.16124080    -0.55390
C295        C  0.76648873  0.55410042  0.12339391     0.84660
O296        O  0.88126910  0.47622619  0.15283565    -0.57290
O297        O  0.77349356  0.49152122  0.18354231    -0.60580
C298        C  0.73301148  0.86555005  0.19306864    -0.02960
In299      In  0.15034287  0.08815888  0.28987568     1.36870
C300        C  0.05385086  0.02938546  0.28971632     0.77110
O301        O  0.19007277  0.00184852  0.28560722    -0.61330
O302        O  0.22194941  0.05387073  0.30647034    -0.52240
C303        C  0.20985654  0.12653360  0.26130594     0.69780
O304        O  0.15877455  0.11185424  0.26018558    -0.47100
C305        C  0.11699265  0.17713945  0.31045657     0.74480
O306        O  0.07892280  0.04457352  0.27531687    -0.58960
O307        O  0.14442052  0.13530923  0.31662544    -0.49050
O308        O  0.07781909  0.04435810  0.30402526    -0.55390
C309        C  0.22682973  0.00817526  0.29755883     0.84660
O310        O  0.22824417  0.12625086  0.27722928    -0.57290
O311        O  0.10964884  0.17532482  0.29354991    -0.60580
In312      In  0.90417712  0.93923230  0.29082912     1.36870
C313        C  0.00090621  0.99699932  0.28999388     0.77110
O314        O  0.86339972  0.02418955  0.29297068    -0.61330
O315        O  0.81134850  0.95347794  0.29844527    -0.52240
C316        C  0.86323390  0.91006571  0.25893578     0.69780
O317        O  0.89747823  0.95013254  0.26091037    -0.47100
C318        C  0.93525807  0.85813117  0.31387433     0.74480
O319        O  0.98493547  0.96735074  0.27679729    -0.58960
O320        O  0.90655551  0.90104465  0.31891654    -0.49050
O321        O  0.96782948  0.99665200  0.30359006    -0.55390
C322        C  0.81403033  0.00611867  0.29549226     0.84660
O323        O  0.85600204  0.87985621  0.27290311    -0.57290
O324        O  0.94447766  0.85495339  0.29700714    -0.60580
In325      In  0.02425993  0.28883616  0.34324492     1.36870
C326        C  0.92969680  0.27602791  0.32568363     0.77110
O327        O  0.06205993  0.26217431  0.31607322    -0.61330
O328        O  0.09033610  0.21857391  0.33930543    -0.52240
C329        C  0.03876543  0.40034618  0.34796647     0.69780
O330        O  0.99215319  0.37589197  0.34932599    -0.47100
C331        C  0.99796428  0.25252645  0.37662457     0.74480
O332        O  0.95928928  0.31990209  0.32353748    -0.58960
O333        O  0.04808351  0.26611775  0.37238310    -0.49050
O334        O  0.95023141  0.23859535  0.33599027    -0.55390
C335        C  0.09066800  0.22131545  0.32223762     0.84660
O336        O  0.08013057  0.36721898  0.34452699    -0.57290
O337        O  0.96399393  0.25669539  0.36381160    -0.60580
C338        C  0.70144808  0.21799699  0.30207995    -0.02960
In339      In  0.03119874  0.75942181  0.34803620     1.36870
C340        C  0.12907031  0.78357936  0.33314678     0.77110
O341        O  0.99325804  0.77835165  0.32105267    -0.61330
O342        O  0.96028170  0.82418767  0.34354925    -0.52240
C343        C  0.02956560  0.64619175  0.34921360     0.69780
O344        O  0.07402763  0.67483812  0.34856952    -0.47100
C345        C  0.04765917  0.78470596  0.38266318     0.74480
O346        O  0.10065376  0.74144999  0.32825487    -0.58960
O347        O  0.01005001  0.75004524  0.37802525    -0.49050
O348        O  0.10613091  0.81535085  0.34495046    -0.55390
C349        C  0.96178371  0.81821830  0.32656748     0.84660
O350        O  0.98433191  0.67562093  0.34972573    -0.57290
O351        O  0.07161992  0.80979629  0.36968145    -0.60580
C352        C  0.36301663  0.81774721  0.30889067    -0.02960
In353      In  0.45055195  0.65877402  0.20821154     1.36870
C354        C  0.51098710  0.56284464  0.20950523     0.77110
O355        O  0.36718816  0.61574874  0.20469558    -0.61330
O356        O  0.40539101  0.65189880  0.18130170    -0.52240
C357        C  0.41887411  0.70753289  0.23900852     0.69780
O358        O  0.44135194  0.65855749  0.23832863    -0.47100
C359        C  0.52589673  0.73985250  0.20312789     0.74480
O360        O  0.48826313  0.58493455  0.22350063    -0.58960
O361        O  0.47376660  0.74936601  0.20132597    -0.49050
O362        O  0.50343284  0.59023386  0.19499988    -0.55390
C363        C  0.36611494  0.62174897  0.18774882     0.84660
O364        O  0.40831550  0.72971382  0.22388808    -0.57290
O365        O  0.53859689  0.68799447  0.20456184    -0.60580
In366      In  0.59831545  0.40928922  0.20992166     1.36870
C367        C  0.54303416  0.50895190  0.20985789     0.77110
O368        O  0.68369925  0.45044933  0.20577120    -0.61330
O369        O  0.64621839  0.41296458  0.18289124    -0.52240
C370        C  0.62931838  0.36728521  0.24195745     0.69780
O371        O  0.58559992  0.39789751  0.24029683    -0.47100
C372        C  0.52807109  0.32568742  0.20041885     0.74480
O373        O  0.56078934  0.48645107  0.22424256    -0.58960
O374        O  0.58099873  0.31892314  0.20034371    -0.49050
O375        O  0.55424489  0.48105442  0.19564443    -0.55390
C376        C  0.68684053  0.44128267  0.18893309     0.84660
O377        O  0.65782114  0.36056076  0.22749705    -0.57290
O378        O  0.51181883  0.37510901  0.20458776    -0.60580
In379      In  0.53551628  0.28266097  0.39969679     1.36870
C380        C  0.63952165  0.25957672  0.41096065     0.77110
O381        O  0.49198751  0.26402016  0.42661784    -0.61330
O382        O  0.46778315  0.21521343  0.40418097    -0.52240
C383        C  0.52888257  0.39615326  0.40310769     0.69780
O384        O  0.55846242  0.36475152  0.41307773    -0.47100
C385        C  0.55057475  0.26468780  0.36411940     0.74480
O386        O  0.62343207  0.30757729  0.40550441    -0.58960
O387        O  0.51061727  0.29591760  0.37004315    -0.49050
O388        O  0.60268229  0.22139304  0.40988782    -0.55390
C389        C  0.46461124  0.22218495  0.42109419     0.84660
O390        O  0.49743247  0.36897612  0.39251544    -0.57290
O391        O  0.57734404  0.23865855  0.37622141    -0.60580
C392        C  0.86222274  0.23074476  0.44409581    -0.02960
C393        C  0.19629523  0.82179208  0.44378384    -0.02960
In394      In  0.53554461  0.75594880  0.40557069     1.36870
C395        C  0.43262331  0.77765129  0.41866904     0.77110
O396        O  0.57590670  0.78149853  0.43193088    -0.61330
O397        O  0.60331992  0.82365921  0.40826636    -0.52240
C398        C  0.54769524  0.64257577  0.40551254     0.69780
O399        O  0.52186480  0.66987666  0.41779198    -0.47100
C400        C  0.51052049  0.78530977  0.37161004     0.74480
O401        O  0.45095215  0.72799997  0.41567662    -0.58960
O402        O  0.55872084  0.76476356  0.37517337    -0.49050
O403        O  0.46755421  0.81667461  0.41541350    -0.55390
C404        C  0.60381166  0.82181629  0.42529691     0.84660
O405        O  0.57372364  0.67346773  0.39421141    -0.57290
O406        O  0.47855655  0.79079482  0.38516097    -0.60580
In407      In  0.11363732  0.64709241  0.54285518     1.36870
C408        C  0.05143855  0.55285264  0.54159067     0.77110
O409        O  0.19816609  0.60520200  0.54783874    -0.61330
O410        O  0.15502184  0.64185798  0.57043942    -0.52240
C411        C  0.15437318  0.69833444  0.51350724     0.69780
O412        O  0.14376722  0.64585936  0.51389420    -0.47100
C413        C  0.03079249  0.72411518  0.54697997     0.74480
O414        O  0.07671392  0.57273121  0.52787689    -0.58960
O415        O  0.07279785  0.72364258  0.55740040    -0.49050
O416        O  0.05868022  0.58043406  0.55599833    -0.55390
C417        C  0.19675239  0.61258797  0.56476105     0.84660
O418        O  0.15050645  0.72326514  0.52863446    -0.57290
O419        O  0.03198440  0.68469361  0.53547841    -0.60580
In420      In  0.95453231  0.40726852  0.53983964     1.36870
C421        C  0.01631937  0.50175562  0.54088130     0.77110
O422        O  0.86766491  0.44524185  0.54482103    -0.61330
O423        O  0.91056868  0.40911057  0.56715309    -0.52240
C424        C  0.91928705  0.35927887  0.50991476     0.69780
O425        O  0.92845625  0.41201810  0.51087771    -0.47100
C426        C  0.03305754  0.32971154  0.54586052     0.74480
O427        O  0.99918811  0.48073252  0.52625662    -0.58960
O428        O  0.98481048  0.32693919  0.55336131    -0.49050
O429        O  0.00112317  0.47518415  0.55491278    -0.55390
C430        C  0.86811132  0.43663117  0.56169284     0.84660
O431        O  0.92337006  0.33242808  0.52458997    -0.57290
O432        O  0.04047033  0.37159969  0.53553806    -0.60580
C433        C  0.30679737  0.82026679  0.44751325    -0.02320
C434        C  0.25841734  0.80508076  0.43641516     0.07360
C435        C  0.27264154  0.78006756  0.41894154    -0.02430
C436        C  0.32973220  0.77192649  0.41340971    -0.02430
C437        C  0.37394536  0.78895146  0.42440503     0.07500
C438        C  0.36281081  0.81431049  0.44106097    -0.02630
Br439      Br  0.42654974  0.83747462  0.45556563    -0.01180
Br440      Br  0.30254584  0.84171768  0.47297289    -0.01250
Br441      Br  0.34933767  0.73987595  0.38981359    -0.01210
Br442      Br  0.22054300  0.75562469  0.40084777    -0.01190
C443        C  0.12139995  0.75973749  0.48827024    -0.02320
C444        C  0.16525298  0.72887325  0.49632303     0.07360
C445        C  0.21563606  0.72004392  0.48673542    -0.02430
C446        C  0.22237198  0.74142498  0.46897744    -0.02430
C447        C  0.18392174  0.78526845  0.46197998     0.07500
C448        C  0.12981511  0.78758870  0.47144947    -0.02630
Br449      Br  0.06318126  0.82663574  0.46276986    -0.01180
Br450      Br  0.04815776  0.76223313  0.50044897    -0.01250
Br451      Br  0.27742448  0.69584966  0.45497496    -0.01210
Br452      Br  0.27516222  0.67614842  0.49813105    -0.01190
C453        C  0.85880065  0.34584763  0.48323032    -0.02320
C454        C  0.90668434  0.33044573  0.49281957     0.07360
C455        C  0.94438343  0.28954433  0.48570219    -0.02430
C456        C  0.93004250  0.25743956  0.47033748    -0.02430
C457        C  0.87994522  0.27068527  0.46028605     0.07500
C458        C  0.84860602  0.32112316  0.46623761    -0.02630
Br459      Br  0.79845392  0.36787937  0.45183215    -0.01180
Br460      Br  0.80689270  0.40183649  0.49376831    -0.01250
Br461      Br  0.98275493  0.19783195  0.46337901    -0.01210
Br462      Br  0.01816058  0.28114759  0.49632662    -0.01190
C463        C  0.70026026  0.22714214  0.43625790    -0.02320
C464        C  0.69581890  0.25130477  0.41896616     0.07360
C465        C  0.74259090  0.27961353  0.41143114    -0.02430
C466        C  0.79442018  0.28082041  0.42039791    -0.02430
C467        C  0.80179450  0.24948850  0.43699042     0.07500
C468        C  0.75038012  0.23313876  0.44599823    -0.02630
Br469      Br  0.73690990  0.24781729  0.47149670    -0.01180
Br470      Br  0.63539174  0.19244833  0.44795137    -0.01250
Br471      Br  0.84906178  0.33447183  0.41050644    -0.01210
Br472      Br  0.73783693  0.31453092  0.38800523    -0.01190
C473        C  0.48495246  0.49451262  0.40247627    -0.02320
C474        C  0.53360262  0.45941143  0.40333075     0.07360
C475        C  0.58755257  0.48522927  0.40408446    -0.02430
C476        C  0.59242369  0.54501807  0.40435694    -0.02430
C477        C  0.54371322  0.57973923  0.40406246     0.07500
C478        C  0.49002976  0.55424996  0.40279844    -0.02630
Br479      Br  0.42298808  0.60111843  0.40058501    -0.01180
Br480      Br  0.41076572  0.46120931  0.40174138    -0.01250
Br481      Br  0.66589042  0.57961839  0.40560947    -0.01210
Br482      Br  0.65598756  0.43981125  0.40401598    -0.01190
C483        C  0.43159491  0.79628844  0.28158674    -0.02320
C484        C  0.38069532  0.78279659  0.29131583     0.07360
C485        C  0.34900735  0.73541686  0.28413671    -0.02430
C486        C  0.35918697  0.71550269  0.26641942    -0.02430
C487        C  0.40476597  0.73557342  0.25631126     0.07500
C488        C  0.44091181  0.77589600  0.26377920    -0.02630
Br489      Br  0.50166044  0.80587201  0.24912784    -0.01180
Br490      Br  0.49361077  0.83647415  0.29280495    -0.01250
Br491      Br  0.30977352  0.66033473  0.25535420    -0.01210
Br492      Br  0.29981522  0.68544909  0.29784342    -0.01190
C493        C  0.40165351  0.83886339  0.34163404    -0.02320
C494        C  0.40606845  0.80624363  0.32515361     0.07360
C495        C  0.45091003  0.76315159  0.32510039    -0.02430
C496        C  0.49146966  0.76110834  0.33914204    -0.02430
C497        C  0.48858314  0.80016423  0.35349452     0.07500
C498        C  0.44751891  0.84323986  0.35319367    -0.02630
Br499      Br  0.44971632  0.90478739  0.37072332    -0.01180
Br500      Br  0.33095091  0.86055920  0.35375018    -0.01250
Br501      Br  0.54984843  0.70268204  0.33944240    -0.01210
Br502      Br  0.45248065  0.69611175  0.30967252    -0.01190
C503        C  0.25376432  0.82015752  0.30371285    -0.02320
C504        C  0.30065741  0.80171812  0.31457217     0.07360
C505        C  0.28643984  0.76623878  0.32993963    -0.02430
C506        C  0.22991948  0.76171954  0.33585961    -0.02430
C507        C  0.18707710  0.79122164  0.32693999     0.07500
C508        C  0.19844790  0.81982655  0.31083007    -0.02630
Br509      Br  0.13665511  0.85510213  0.29793218    -0.01180
Br510      Br  0.25815679  0.82985823  0.27765445    -0.01250
Br511      Br  0.20931301  0.71147567  0.35564799    -0.01210
Br512      Br  0.33802232  0.71281261  0.34141857    -0.01190
C513        C  0.07479946  0.84781480  0.40807247    -0.02320
C514        C  0.06709814  0.79287053  0.40145230     0.07360
C515        C  0.08704366  0.74648385  0.41150077    -0.02430
C516        C  0.12361579  0.75516246  0.42627834    -0.02430
C517        C  0.14355528  0.81146908  0.43062981     0.07500
C518        C  0.10811486  0.85711516  0.42347040    -0.02630
Br519      Br  0.09481558  0.93172838  0.43457780    -0.01180
Br520      Br  0.03859568  0.91078308  0.39567473    -0.01250
Br521      Br  0.14873903  0.68621530  0.43792993    -0.01210
Br522      Br  0.07247114  0.67021170  0.40288840    -0.01190
C523        C  0.63384668  0.25151265  0.27612180    -0.02320
C524        C  0.68709158  0.25676777  0.28474711     0.07360
C525        C  0.72405704  0.29916835  0.27643406    -0.02430
C526        C  0.70213098  0.34009633  0.26427530    -0.02430
C527        C  0.64566351  0.33852843  0.25900617     0.07500
C528        C  0.61014475  0.29756409  0.26669852    -0.02630
Br529      Br  0.53087582  0.29625787  0.26110469    -0.01180
Br530      Br  0.61776258  0.18189452  0.26329579    -0.01250
Br531      Br  0.74891437  0.40092770  0.25483789    -0.01210
Br532      Br  0.80680016  0.29717384  0.27604040    -0.01190
C533        C  0.59390577  0.21380541  0.31702536    -0.02320
C534        C  0.65335929  0.22986886  0.31752037     0.07360
C535        C  0.66735245  0.25935903  0.33377067    -0.02430
C536        C  0.62590978  0.28969453  0.34336843    -0.02430
C537        C  0.57318576  0.26568051  0.34529551     0.07500
C538        C  0.55618847  0.22791057  0.33184087    -0.02630
Br539      Br  0.48213418  0.19496185  0.33462422    -0.01180
Br540      Br  0.56434860  0.15711229  0.30118023    -0.01250
Br541      Br  0.64413950  0.35593822  0.35723978    -0.01210
Br542      Br  0.72608629  0.23304279  0.34961496    -0.01190
C543        C  0.86252421  0.21510315  0.31031844    -0.02320
C544        C  0.87420386  0.26826842  0.31758751     0.07360
C545        C  0.82963304  0.30756041  0.32065181    -0.02430
C546        C  0.77419136  0.29428746  0.31510065    -0.02430
C547        C  0.76119304  0.23655320  0.30967576     0.07500
C548        C  0.80718749  0.19650009  0.31100963    -0.02630
Br549      Br  0.80475457  0.13286188  0.32742145    -0.01180
Br550      Br  0.92234015  0.16159121  0.30384262    -0.01250
Br551      Br  0.72122030  0.35810301  0.31397532    -0.01210
Br552      Br  0.84419369  0.37849924  0.33286635    -0.01190
C553        C  0.06599861  0.55461215  0.33595412    -0.02320
C554        C  0.03188277  0.58321006  0.34907024     0.07360
C555        C  0.00353761  0.55159063  0.36255818    -0.02430
C556        C  0.00933374  0.49186396  0.36295630    -0.02430
C557        C  0.04212579  0.46308132  0.34952050     0.07500
C558        C  0.07090746  0.49482154  0.33612628    -0.02630
Br559      Br  0.11378756  0.45666682  0.31711081    -0.01180
Br560      Br  0.10286742  0.59691651  0.31676117    -0.01250
Br561      Br  0.97396216  0.44972157  0.38247975    -0.01210
Br562      Br  0.95768448  0.58993301  0.38079020    -0.01190
C563        C  0.89359529  0.19972319  0.41095753    -0.02320
C564        C  0.90540668  0.23250543  0.42712152     0.07360
C565        C  0.95428051  0.26948649  0.42570218    -0.02430
C566        C  0.99100389  0.26759738  0.41029947    -0.02430
C567        C  0.97704461  0.23588304  0.39498036     0.07500
C568        C  0.93123627  0.19886563  0.39598389    -0.02630
Br569      Br  0.92102157  0.14504480  0.37634447    -0.01180
Br570      Br  0.82324821  0.15942213  0.40667321    -0.01250
Br571      Br  0.05881830  0.31319776  0.40942086    -0.01210
Br572      Br  0.96491164  0.33807284  0.44000602    -0.01190
C573        C  0.76659315  0.08241601  0.27887102    -0.02320
C574        C  0.76463793  0.04459460  0.29326437     0.07360
C575        C  0.72232953  0.05115308  0.30644918    -0.02430
C576        C  0.69533969  0.10516068  0.30887708    -0.02430
C577        C  0.70753844  0.15213555  0.29646420     0.07500
C578        C  0.73967345  0.13587414  0.28023058    -0.02630
Br579      Br  0.75545250  0.18219263  0.25912234    -0.01180
Br580      Br  0.80863732  0.05882713  0.25716826    -0.01250
Br581      Br  0.65744356  0.11091434  0.33237598    -0.01210
Br582      Br  0.70895614  0.98797743  0.32271697    -0.01190
C583        C  0.35331458  0.91088737  0.28725409    -0.02320
C584        C  0.36179413  0.88537878  0.30470754     0.07360
C585        C  0.34415311  0.92269516  0.31875723    -0.02430
C586        C  0.29288632  0.95276463  0.31724758    -0.02430
C587        C  0.27420754  0.96735776  0.29995044     0.07500
C588        C  0.30828764  0.95070309  0.28496871    -0.02630
Br589      Br  0.29672104  0.98581885  0.26168173    -0.01180
Br590      Br  0.41392288  0.92050540  0.26983789    -0.01250
Br591      Br  0.25418422  0.97989706  0.33877913    -0.01210
Br592      Br  0.40226039  0.96892837  0.32877744    -0.01190
C593        C  0.73680021  0.90250300  0.22793737    -0.02320
C594        C  0.76333423  0.89460050  0.21023621     0.07360
C595        C  0.81998662  0.91550841  0.20958665    -0.02430
C596        C  0.85394683  0.91405071  0.22514129    -0.02430
C597        C  0.82950070  0.90391437  0.24226205     0.07500
C598        C  0.77014095  0.90154526  0.24367968    -0.02630
Br599      Br  0.73330288  0.89916751  0.26733405    -0.01180
Br600      Br  0.65726100  0.92210695  0.23241139    -0.01250
Br601      Br  0.93461068  0.92590350  0.22273104    -0.01210
Br602      Br  0.84892791  0.96341979  0.19031409    -0.01190
C603        C  0.61763448  0.86630064  0.19110235    -0.02320
C604        C  0.67029078  0.84935434  0.19952754     0.07360
C605        C  0.66576447  0.80491716  0.21327374    -0.02430
C606        C  0.61593795  0.77398912  0.21563245    -0.02430
C607        C  0.56950114  0.78450852  0.20455924     0.07500
C608        C  0.56751349  0.83493294  0.19443964    -0.02630
Br609      Br  0.49637369  0.85821820  0.18381917    -0.01180
Br610      Br  0.60968607  0.91910280  0.17121349    -0.01250
Br611      Br  0.61161241  0.71550873  0.23430665    -0.01210
Br612      Br  0.72985895  0.77415953  0.22685826    -0.01190
C613        C  0.72542749  0.70484579  0.18288856    -0.02320
C614        C  0.78013833  0.68341081  0.18345271     0.07360
C615        C  0.82492108  0.72112010  0.18633983    -0.02430
C616        C  0.81373284  0.78043715  0.18917164    -0.02430
C617        C  0.75691558  0.80325481  0.18738311     0.07500
C618        C  0.71739239  0.76260919  0.18030887    -0.02630
Br619      Br  0.65911896  0.78031701  0.16301194    -0.01180
Br620      Br  0.66125932  0.65441369  0.18339805    -0.01250
Br621      Br  0.88015962  0.82622541  0.18792859    -0.01210
Br622      Br  0.90172763  0.69183408  0.18414902    -0.01190
C623        C  0.06556051  0.56074109  0.14167095    -0.02320
C624        C  0.09566794  0.52169759  0.15240019     0.07360
C625        C  0.06591799  0.47901640  0.16198597    -0.02430
C626        C  0.00677083  0.47517247  0.16079104    -0.02430
C627        C  0.97632248  0.51535443  0.15053503     0.07500
C628        C  0.00615885  0.55756944  0.14068585    -0.02630
Br629      Br  0.96631543  0.60984920  0.12503711    -0.01180
Br630      Br  0.10575069  0.61763959  0.12789998    -0.01250
Br631      Br  0.96789850  0.41628203  0.17417554    -0.01210
Br632      Br  0.10498568  0.42843173  0.17829771    -0.01190
C633        C  0.29062735  0.33916741  0.19720349    -0.02320
C634        C  0.27285377  0.35550609  0.18009062     0.07360
C635        C  0.25127395  0.31380819  0.16861546    -0.02430
C636        C  0.26611136  0.25603867  0.17146651    -0.02430
C637        C  0.28974318  0.23934337  0.18883530     0.07500
C638        C  0.28326240  0.28238499  0.20222522    -0.02630
Br639      Br  0.21814202  0.27579379  0.21804360    -0.01180
Br640      Br  0.30896118  0.39519970  0.21505794    -0.01250
Br641      Br  0.25519728  0.21054775  0.14988347    -0.01210
Br642      Br  0.19784915  0.33602604  0.15021840    -0.01190
C643        C  0.29056952  0.10826133  0.21673070    -0.02320
C644        C  0.31399020  0.16327587  0.21349206     0.07360
C645        C  0.31802400  0.19767412  0.22970436    -0.02430
C646        C  0.28477757  0.18489011  0.24538694    -0.02430
C647        C  0.24678571  0.13918985  0.24526116     0.07500
C648        C  0.25040367  0.10047124  0.23075915    -0.02630
Br649      Br  0.20121462  0.03549599  0.22974863    -0.01180
Br650      Br  0.32176970  0.03909238  0.20606853    -0.01250
Br651      Br  0.28704911  0.23379153  0.26650139    -0.01210
Br652      Br  0.36808121  0.26214822  0.23219073    -0.01190
C653        C  0.40769058  0.24855923  0.17863617    -0.02320
C654        C  0.39236235  0.20791729  0.19216484     0.07360
C655        C  0.43662021  0.19398356  0.20466698    -0.02430
C656        C  0.48470855  0.22938763  0.20590259    -0.02430
C657        C  0.48733180  0.28046124  0.19600288     0.07500
C658        C  0.44938572  0.28899498  0.18192209    -0.02630
Br659      Br  0.45736858  0.35377176  0.16602597    -0.01180
Br660      Br  0.38975478  0.23794662  0.15365049    -0.01250
Br661      Br  0.54639095  0.20891586  0.22138219    -0.01210
Br662      Br  0.43637523  0.12604879  0.21956862    -0.01190
C663        C  0.77510129  0.66391443  0.00804128    -0.02320
C664        C  0.83258006  0.64833313  0.00898998     0.07360
C665        C  0.85752944  0.64517814  0.02609966    -0.02430
C666        C  0.82464687  0.65390436  0.04207724    -0.02430
C667        C  0.76569224  0.67182192  0.04148328     0.07500
C668        C  0.74547111  0.68398692  0.02352792    -0.02630
Br669      Br  0.69579403  0.74752100  0.01759021    -0.01180
Br670      Br  0.73528059  0.65967915  0.98542647    -0.01250
Br671      Br  0.86712439  0.64714345  0.06416524    -0.01210
Br672      Br  0.93896352  0.63387070  0.02776897    -0.01190
C673        C  0.68473808  0.63724031  0.08857967    -0.02320
C674        C  0.72436650  0.63638292  0.07354073     0.07360
C675        C  0.75620925  0.58432619  0.07260047    -0.02430
C676        C  0.77116088  0.55572407  0.08879433    -0.02430
C677        C  0.74495535  0.57163604  0.10536815     0.07500
C678        C  0.69769105  0.60842271  0.10473916    -0.02630
Br679      Br  0.64806921  0.61698547  0.12579569    -0.01180
Br680      Br  0.60399144  0.64917183  0.08578343    -0.01250
Br681      Br  0.82941214  0.49779075  0.08804263    -0.01210
Br682      Br  0.76394365  0.54109157  0.05039702    -0.01190
C683        C  0.76792677  0.84263214  0.06063239    -0.02320
C684        C  0.78541477  0.85281672  0.07822866     0.07360
C685        C  0.80623892  0.80695738  0.08852641    -0.02430
C686        C  0.79415944  0.75046437  0.08344240    -0.02430
C687        C  0.77021371  0.74074282  0.06603945     0.07500
C688        C  0.77379417  0.78801243  0.05380651    -0.02630
Br689      Br  0.82654580  0.78764843  0.03354385    -0.01180
Br690      Br  0.74587889  0.90347704  0.04458703    -0.01250
Br691      Br  0.80592777  0.69380829  0.10182805    -0.01210
Br692      Br  0.85447597  0.82074057  0.10843255    -0.01190
C693        C  0.79564788  0.93516438  0.14908430    -0.02320
C694        C  0.76539937  0.98522413  0.14717433     0.07360
C695        C  0.72847191  0.00192199  0.16117175    -0.02430
C696        C  0.72293333  0.96682934  0.17681963    -0.02430
C697        C  0.74027698  0.90732817  0.17616908     0.07500
C698        C  0.77495648  0.89254531  0.16041312    -0.02630
Br699      Br  0.78871943  0.81924992  0.14921543    -0.01180
Br700      Br  0.86876531  0.92838660  0.13731467    -0.01250
Br701      Br  0.69028012  0.00340805  0.19787766    -0.01210
Br702      Br  0.68927035  0.07382472  0.15914906    -0.01190
C703        C  0.22785610  0.42468292  0.02425367    -0.02320
C704        C  0.23852596  0.39157904  0.00851032     0.07360
C705        C  0.27807088  0.34691807  0.00960088    -0.02430
C706        C  0.29373462  0.32825082  0.02668488    -0.02430
C707        C  0.29989693  0.36801725  0.04120039     0.07500
C708        C  0.25882442  0.41454479  0.04047054    -0.02630
Br709      Br  0.23238868  0.46088948  0.06073021    -0.01180
Br710      Br  0.17185042  0.48562154  0.02339775    -0.01250
Br711      Br  0.24800034  0.26150413  0.03098057    -0.01210
Br712      Br  0.29795945  0.29838915  0.98929756    -0.01190
C713        C  0.33316089  0.39652319  0.10794036    -0.02320
C714        C  0.32696594  0.45586576  0.10701655     0.07360
C715        C  0.33781013  0.48296380  0.09035674    -0.02430
C716        C  0.34817449  0.45007449  0.07440964    -0.02430
C717        C  0.34185747  0.38948882  0.07469784     0.07500
C718        C  0.34565161  0.36429351  0.09245552    -0.02630
Br719      Br  0.38328972  0.29157634  0.09768505    -0.01180
Br720      Br  0.32540635  0.35688930  0.13058137    -0.01250
Br721      Br  0.37298565  0.48913776  0.05269854    -0.01210
Br722      Br  0.34030568  0.56479893  0.08962463    -0.01190
C723        C  0.27824562  0.27783403  0.07267035    -0.02320
C724        C  0.32807126  0.28892313  0.06190116     0.07360
C725        C  0.36016014  0.23959167  0.05606639    -0.02430
C726        C  0.35395668  0.18743385  0.06506071    -0.02430
C727        C  0.30795573  0.17945857  0.07679003     0.07500
C728        C  0.26944989  0.22393155  0.08025912    -0.02630
Br729      Br  0.20641727  0.21176692  0.09675621    -0.01180
Br730      Br  0.21900211  0.33320624  0.07704637    -0.01250
Br731      Br  0.40466680  0.12421304  0.05963535    -0.01210
Br732      Br  0.38775734  0.22961519  0.03153059    -0.01190
C733        C  0.05356850  0.96804883  0.09315213    -0.02320
C734        C  0.08532587  0.01460954  0.09885037     0.07360
C735        C  0.05697957  0.06488339  0.10467019    -0.02430
C736        C  0.99784170  0.07062106  0.10319482    -0.02430
C737        C  0.96584894  0.02501672  0.09657580     0.07500
C738        C  0.99421271  0.97288640  0.09214218    -0.02630
Br739      Br  0.95329966  0.90614471  0.08506972    -0.01180
Br740      Br  0.09156662  0.89807731  0.08602093    -0.01250
Br741      Br  0.96214140  0.14267949  0.10926694    -0.01210
Br742      Br  0.09877999  0.12533664  0.11571535    -0.01190
C743        C  0.36202658  0.10743107  0.16834416    -0.02320
C744        C  0.31828993  0.13601537  0.17904358     0.07360
C745        C  0.26135116  0.11606669  0.17636732    -0.02430
C746        C  0.24904558  0.07930671  0.16176530    -0.02430
C747        C  0.29165789  0.06235595  0.14946109     0.07500
C748        C  0.34798479  0.07383614  0.15323574    -0.02630
Br749      Br  0.40608429  0.04539624  0.13656596    -0.01180
Br750      Br  0.44173297  0.10463608  0.17375378    -0.01250
Br751      Br  0.17232227  0.05693120  0.15701968    -0.01210
Br752      Br  0.19624869  0.14509726  0.19007110    -0.01190
C753        C  0.76939741  0.75703020  0.67051014    -0.02320
C754        C  0.81083515  0.75236914  0.68483702     0.07360
C755        C  0.83095142  0.80570750  0.69104327    -0.02430
C756        C  0.79590002  0.85275053  0.69047850    -0.02430
C757        C  0.76675295  0.86085867  0.67443893     0.07500
C758        C  0.74987044  0.81197207  0.66487859    -0.02630
Br759      Br  0.69371851  0.81958803  0.64624400    -0.01180
Br760      Br  0.73018666  0.69350898  0.65999787    -0.01250
Br761      Br  0.80744403  0.91309484  0.70771629    -0.01210
Br762      Br  0.90256060  0.83302525  0.68203742    -0.01190
C763        C  0.82091193  0.64312611  0.72566659    -0.02320
C764        C  0.79578661  0.67853815  0.71184962     0.07360
C765        C  0.73865845  0.69885093  0.71628729    -0.02430
C766        C  0.70983454  0.68059105  0.73231421    -0.02430
C767        C  0.73855250  0.65085604  0.74586157     0.07500
C768        C  0.79563861  0.63672234  0.74297136    -0.02630
Br769      Br  0.84066855  0.60853015  0.76281468    -0.01180
Br770      Br  0.88578895  0.59435689  0.72148524    -0.01250
Br771      Br  0.63048645  0.69987314  0.73671976    -0.01210
Br772      Br  0.69344838  0.75144035  0.70255624    -0.01190
C773        C  0.50645563  0.06942404  0.64137244    -0.02320
C774        C  0.47879108  0.02420914  0.65035894     0.07360
C775        C  0.51046777  0.98470684  0.66038663    -0.02430
C776        C  0.56917584  0.99178199  0.66212390    -0.02430
C777        C  0.59659388  0.03859539  0.65375641     0.07500
C778        C  0.56488174  0.07709590  0.64329734    -0.02630
Br779      Br  0.60035008  0.14299449  0.63264747    -0.01180
Br780      Br  0.46455610  0.12056839  0.62590101    -0.01250
Br781      Br  0.61094514  0.93578704  0.67582147    -0.01210
Br782      Br  0.47319637  0.92227766  0.67247569    -0.01190
C783        C  0.28311072  0.20932657  0.69363530    -0.02320
C784        C  0.29709349  0.19943778  0.67547607     0.07360
C785        C  0.31548639  0.24561400  0.66473330    -0.02430
C786        C  0.30477643  0.30235819  0.67063547    -0.02430
C787        C  0.28055872  0.31125821  0.68827198     0.07500
C788        C  0.28741002  0.26418029  0.70030481    -0.02630
Br789      Br  0.34159217  0.26735767  0.71951682    -0.01180
Br790      Br  0.26282029  0.14928548  0.71018710    -0.01250
Br791      Br  0.32048355  0.36219812  0.65371665    -0.01210
Br792      Br  0.35442242  0.23044095  0.64219368    -0.01190
C793        C  0.31796975  0.40248087  0.71447008    -0.02320
C794        C  0.26308915  0.37646519  0.71379229     0.07360
C795        C  0.24214909  0.35522925  0.73106886    -0.02430
C796        C  0.26681675  0.37178729  0.74759629    -0.02430
C797        C  0.31922776  0.39957316  0.74768460     0.07500
C798        C  0.34316307  0.41689946  0.73103404    -0.02630
Br799      Br  0.40971590  0.46458671  0.73058117    -0.01180
Br800      Br  0.36725729  0.41066437  0.69342342    -0.01250
Br801      Br  0.22956837  0.35164209  0.77027915    -0.01210
Br802      Br  0.19718964  0.28670804  0.73383876    -0.01190
C803        C  0.78621175  0.10902193  0.46713905    -0.02320
C804        C  0.78627000  0.07132007  0.45230490     0.07360
C805        C  0.83431550  0.07068950  0.44081777    -0.02430
C806        C  0.87292761  0.11638820  0.44154609    -0.02430
C807        C  0.85810756  0.16647836  0.45175140     0.07500
C808        C  0.82571508  0.15341444  0.46760550    -0.02630
Br809      Br  0.84524419  0.18172872  0.49128441    -0.01180
Br810      Br  0.73599375  0.09674558  0.48769563    -0.01250
Br811      Br  0.94854450  0.10187627  0.43209581    -0.01210
Br812      Br  0.84680095  0.00916474  0.42387030    -0.01190
C813        C  0.20731940  0.92041236  0.46243861    -0.02320
C814        C  0.20637254  0.88885022  0.44567111     0.07360
C815        C  0.22618122  0.92034962  0.42979504    -0.02430
C816        C  0.25557425  0.97168075  0.43151348    -0.02430
C817        C  0.26936875  0.99132249  0.44857360     0.07500
C818        C  0.24246313  0.96856466  0.46392361    -0.02630
Br819      Br  0.25717185  0.00255063  0.48728636    -0.01180
Br820      Br  0.16669651  0.90133159  0.48436889    -0.01250
Br821      Br  0.28171819  0.01400151  0.41048633    -0.01210
Br822      Br  0.21777160  0.89623649  0.40491453    -0.01190
C823        C  0.82161613  0.90196022  0.52030527    -0.02320
C824        C  0.79457783  0.89419543  0.53781530     0.07360
C825        C  0.73800528  0.91795699  0.53889792    -0.02430
C826        C  0.70638177  0.92780443  0.52296808    -0.02430
C827        C  0.73081363  0.91762853  0.50575333     0.07500
C828        C  0.78917397  0.90624507  0.50451229    -0.02630
Br829      Br  0.82670347  0.89937168  0.48099936    -0.01180
Br830      Br  0.90122894  0.91922920  0.51650115    -0.01250
Br831      Br  0.62715488  0.94968842  0.52483481    -0.01210
Br832      Br  0.70006710  0.94014251  0.56113053    -0.01190
C833        C  0.79720366  0.89074432  0.58865527    -0.02320
C834        C  0.82143568  0.90883255  0.57157654     0.07360
C835        C  0.83413272  0.96880815  0.57129401    -0.02430
C836        C  0.83424826  0.00101200  0.58780791    -0.02430
C837        C  0.82678985  0.97350796  0.60465562     0.07500
C838        C  0.81420791  0.91584154  0.60457036    -0.02630
Br839      Br  0.81661366  0.86908481  0.62597896    -0.01180
Br840      Br  0.72970485  0.84465952  0.59227757    -0.01250
Br841      Br  0.84828493  0.08156895  0.58770861    -0.01210
Br842      Br  0.84474930  0.01106334  0.54909278    -0.01190
C843        C  0.94266496  0.86167982  0.55390565    -0.02320
C844        C  0.88799934  0.84355776  0.54786344     0.07360
C845        C  0.88992315  0.79230188  0.53706788    -0.02430
C846        C  0.93159248  0.75106433  0.54010520    -0.02430
C847        C  0.98351971  0.76671516  0.54737593     0.07500
C848        C  0.99043929  0.82398182  0.55264813    -0.02630
Br849      Br  0.06515105  0.85063801  0.55829936    -0.01180
Br850      Br  0.95686781  0.93501985  0.56423244    -0.01250
Br851      Br  0.91243195  0.67175729  0.53645777    -0.01210
Br852      Br  0.83456305  0.77171996  0.51926299    -0.01190
C853        C  0.82313148  0.72638233  0.58378037    -0.02320
C854        C  0.78328379  0.69339551  0.57539494     0.07360
C855        C  0.75112803  0.71563985  0.56133523    -0.02430
C856        C  0.75903474  0.77225808  0.55529333    -0.02430
C857        C  0.80495931  0.80580773  0.56219761     0.07500
C858        C  0.83738244  0.77942842  0.57675212    -0.02630
Br859      Br  0.90166621  0.81278399  0.58901129    -0.01180
Br860      Br  0.85595132  0.69908424  0.60602174    -0.01250
Br861      Br  0.70375413  0.79685118  0.53802559    -0.01210
Br862      Br  0.69590472  0.66654401  0.55050137    -0.01190
C863        C  0.86587272  0.61168199  0.64877741    -0.02320
C864        C  0.82331561  0.57136969  0.64786613     0.07360
C865        C  0.79226774  0.55997226  0.66383674    -0.02430
C866        C  0.79873308  0.59431594  0.67966645    -0.02430
C867        C  0.83279389  0.64588514  0.67904357     0.07500
C868        C  0.86392781  0.65383796  0.66224055    -0.02630
Br869      Br  0.90287764  0.72201969  0.65510368    -0.01180
Br870      Br  0.93137634  0.60485975  0.63276516    -0.01250
Br871      Br  0.75205937  0.56868468  0.69984595    -0.01210
Br872      Br  0.74107233  0.49598411  0.66404214    -0.01190
C873        C  0.56188057  0.53447178  0.58235660    -0.02320
C874        C  0.59355219  0.51208958  0.59682033     0.07360
C875        C  0.56571532  0.49665336  0.61310669    -0.02430
C876        C  0.50689581  0.50526029  0.61504956    -0.02430
C877        C  0.47587613  0.53028878  0.60086789     0.07500
C878        C  0.50354198  0.54464727  0.58448585    -0.02630
Br879      Br  0.46128594  0.57486861  0.56436877    -0.01180
Br880      Br  0.59762839  0.54769099  0.55903209    -0.01250
Br881      Br  0.46903916  0.48428658  0.63744450    -0.01210
Br882      Br  0.60781481  0.46592510  0.63310987    -0.01190
C883        C  0.20042342  0.43885352  0.65002399    -0.02320
C884        C  0.24455366  0.47834078  0.64925657     0.07360
C885        C  0.26833274  0.49579464  0.66576058    -0.02430
C886        C  0.25469602  0.46633210  0.68202090    -0.02430
C887        C  0.22640551  0.41313792  0.68119602     0.07500
C888        C  0.18768046  0.41107733  0.66635179    -0.02630
Br889      Br  0.10669695  0.40154498  0.66956160    -0.01180
Br890      Br  0.15333185  0.42524548  0.62912252    -0.01250
Br891      Br  0.25412153  0.51091450  0.70399727    -0.01210
Br892      Br  0.32075004  0.55775218  0.66642241    -0.01190
C893        C  0.30923809  0.26004024  0.57917862    -0.02320
C894        C  0.28309397  0.25044732  0.56203502     0.07360
C895        C  0.28709298  0.29730795  0.54956503    -0.02430
C896        C  0.28634827  0.35275679  0.55610849    -0.02430
C897        C  0.30306449  0.36240624  0.57374428     0.07500
C898        C  0.32165750  0.31657764  0.58439406    -0.02630
Br899      Br  0.35994214  0.33309347  0.60659368    -0.01180
Br900      Br  0.32500102  0.20217492  0.59677906    -0.01250
Br901      Br  0.26620401  0.41505889  0.54040026    -0.01210
Br902      Br  0.32690175  0.29195812  0.52658879    -0.01190
C903        C  0.26984482  0.16606754  0.50475630    -0.02320
C904        C  0.32651038  0.14763904  0.50472204     0.07360
C905        C  0.35523493  0.14502837  0.52113857    -0.02430
C906        C  0.32680191  0.15788872  0.53763892    -0.02430
C907        C  0.26896443  0.17911747  0.53814399     0.07500
C908        C  0.24438848  0.18903579  0.52058858    -0.02630
Br909      Br  0.19279727  0.25137777  0.51496458    -0.01180
Br910      Br  0.22637382  0.16172883  0.48279804    -0.01250
Br911      Br  0.37304504  0.14913185  0.55878455    -0.01210
Br912      Br  0.43596940  0.12823727  0.52087508    -0.01190
C913        C  0.27076222  0.06374707  0.58627554    -0.02320
C914        C  0.25043838  0.08395351  0.60320895     0.07360
C915        C  0.21183834  0.12993530  0.60342735    -0.02430
C916        C  0.19777507  0.15699359  0.58728134    -0.01630
C917        C  0.23272442  0.14961059  0.57132438     0.07500
C918        C  0.25804889  0.09398094  0.57016080    -0.02630
Br919      Br  0.26129267  0.05025243  0.54792827    -0.01180
Br920      Br  0.31470603  0.99410342  0.58500904    -0.01250
Br921      Br  0.11638549  0.16808029  0.58648109    -0.01210
Br922      Br  0.17794619  0.16040201  0.62551184    -0.01190
C923        C  0.08278413  0.23425326  0.54516870    -0.02320
C924        C  0.08018764  0.29193698  0.55030168     0.07360
C925        C  0.12332614  0.31504272  0.56045118    -0.02430
C926        C  0.16810723  0.28044935  0.56559254    -0.02430
C927        C  0.18128309  0.22907811  0.55569810     0.07500
C928        C  0.13399323  0.20299101  0.54719976    -0.02630
Br929      Br  0.13654962  0.12499284  0.53905044    -0.01180
Br930      Br  0.01651997  0.19844348  0.53577757    -0.01250
Br931      Br  0.18922448  0.29323723  0.59052606    -0.01210
Br932      Br  0.11768125  0.39229309  0.56963707    -0.01190
C933        C  0.43274279  0.35208838  0.03327065    -0.02320
C934        C  0.41006151  0.35406160  0.05124922     0.07360
C935        C  0.45152369  0.34392564  0.06481613    -0.02430
C936        C  0.49461167  0.30400516  0.06173194    -0.02430
C937        C  0.50748209  0.28754257  0.04400270     0.07500
C938        C  0.48181795  0.31780632  0.02966009    -0.02630
Br939      Br  0.50924669  0.30635109  0.00523356    -0.01180
Br940      Br  0.40432033  0.40028659  0.01438677    -0.01250
Br941      Br  0.53506348  0.27279821  0.08199445    -0.01210
Br942      Br  0.47216748  0.40257762  0.08175830    -0.01190
C943        C  0.60918439  0.79947412  0.06271409    -0.02320
C944        C  0.57144556  0.77941823  0.04993782     0.07360
C945        C  0.57903153  0.72398202  0.04283544    -0.02430
C946        C  0.62862305  0.69183647  0.04682551    -0.02430
C947        C  0.67160106  0.71622314  0.05767460     0.07500
C948        C  0.65364851  0.76479634  0.06831294    -0.02630
Br949      Br  0.67182504  0.77512570  0.09361894    -0.01180
Br950      Br  0.59862519  0.87409420  0.07362842    -0.01250
Br951      Br  0.63584565  0.61505475  0.03769788    -0.01210
Br952      Br  0.52503256  0.69433759  0.02630248    -0.01190
C953        C  0.77390496  0.25360561  0.93465368    -0.02320
C954        C  0.74795797  0.31017617  0.93282114     0.07360
C955        C  0.78432469  0.35007582  0.92288945    -0.02430
C956        C  0.84203800  0.33822589  0.91987677    -0.02430
C957        C  0.86149816  0.28247963  0.91989880     0.07500
C958        C  0.82472817  0.23950598  0.92521287    -0.02630
Br959      Br  0.84689377  0.16090422  0.92071718    -0.01180
Br960      Br  0.76139212  0.19619101  0.95307199    -0.01250
Br961      Br  0.89663176  0.39954450  0.91796769    -0.01210
Br962      Br  0.76640264  0.42576393  0.91435937    -0.01190
C963        C  0.66122891  0.31248812  0.97765989    -0.02320
C964        C  0.66685238  0.29474943  0.95900272     0.07360
C965        C  0.64536099  0.23904374  0.95522878    -0.02430
C966        C  0.63385334  0.20057940  0.96967809    -0.02430
C967        C  0.64616243  0.21575097  0.98765837     0.07500
C968        C  0.65971409  0.27218260  0.99153805    -0.02630
Br969      Br  0.67287591  0.29687763  0.01626998    -0.01180
Br970      Br  0.64400028  0.38913403  0.98599287    -0.01250
Br971      Br  0.60843807  0.12448036  0.96472167    -0.01210
Br972      Br  0.63968865  0.20949401  0.93072693    -0.01190
C973        C  0.77000702  0.38142038  0.96280177    -0.02320
C974        C  0.71804313  0.38856870  0.95319450     0.07360
C975        C  0.69903478  0.44597577  0.95061787    -0.02430
C976        C  0.73801242  0.49095024  0.95195632    -0.02430
C977        C  0.79423628  0.47944591  0.95698301     0.07500
C978        C  0.80943838  0.42491992  0.96299944    -0.02630
Br979      Br  0.88713603  0.40664739  0.96949341    -0.01180
Br980      Br  0.79213348  0.31273171  0.97530075    -0.01250
Br981      Br  0.71500724  0.56753118  0.94599923    -0.01210
Br982      Br  0.61974315  0.46646426  0.94920754    -0.01190
C983        C  0.02730005  0.98556994  0.89101024    -0.02320
C984        C  0.01789851  0.95751594  0.90770905     0.07360
C985        C  0.02100524  0.98824725  0.92409502    -0.02430
C986        C  0.03370839  0.04634108  0.92379696    -0.02430
C987        C  0.04217517  0.07438005  0.90716943     0.07500
C988        C  0.03897985  0.04406316  0.89078709    -0.02630
Br989      Br  0.04837847  0.08309018  0.86799525    -0.01180
Br990      Br  0.02750953  0.94415861  0.86836729    -0.01250
Br991      Br  0.04075324  0.08779094  0.94624688    -0.01210
Br992      Br  0.00621610  0.95144501  0.94706696    -0.01190
C993        C  0.23759926  0.73391046  0.91241766    -0.02320
C994        C  0.20607840  0.77863709  0.91956067     0.07360
C995        C  0.22644795  0.80823347  0.93452676    -0.02430
C996        C  0.27603829  0.78857475  0.94342928    -0.02430
C997        C  0.30422640  0.73572537  0.93753782     0.07500
C998        C  0.27359009  0.70561717  0.92396564    -0.02630
Br999      Br  0.24332718  0.63069607  0.92739813    -0.01180
Br1000     Br  0.21749581  0.69888623  0.88971093    -0.01250
Br1001     Br  0.28935458  0.83190139  0.96528844    -0.01210
Br1002     Br  0.18395222  0.87471144  0.94294945    -0.01190
C1003       C  0.40834392  0.80258330  0.95675444    -0.02320
C1004       C  0.39178016  0.74453965  0.95945149     0.07360
C1005       C  0.40231399  0.72189649  0.97709773    -0.02430
C1006       C  0.40200180  0.75820373  0.99208529    -0.02430
C1007       C  0.41218986  0.81653320  0.98970601     0.07500
C1008       C  0.42116408  0.83733860  0.97190281    -0.02630
Br1009     Br  0.44100466  0.91602982  0.96815311    -0.01180
Br1010     Br  0.40502827  0.83921766  0.93322539    -0.01250
Br1011     Br  0.38592127  0.72553384  0.01566365    -0.01210
Br1012     Br  0.42932429  0.64501133  0.98183331    -0.01190
C1013       C  0.33854588  0.54447822  0.94541646    -0.02320
C1014       C  0.28945036  0.54400984  0.95632407     0.07360
C1015       C  0.27974783  0.58878303  0.96847907    -0.02430
C1016       C  0.30459439  0.64155279  0.96519728    -0.02430
C1017       C  0.34787932  0.64744579  0.95135489     0.07500
C1018       C  0.37077122  0.59477305  0.94421050    -0.02630
Br1019     Br  0.44783021  0.58505394  0.93557304    -0.01180
Br1020     Br  0.36011607  0.47785431  0.93158291    -0.01250
Br1021     Br  0.27187460  0.70292896  0.97926672    -0.01210
Br1022     Br  0.22928838  0.57795344  0.98913274    -0.01190
C1023       C  0.16624163  0.28233602  0.68432899    -0.02320
C1024       C  0.17831257  0.33002206  0.69576466     0.07360
C1025       C  0.13145374  0.35188563  0.70630356    -0.02430
C1026       C  0.08129988  0.31969862  0.70795136    -0.02430
C1027       C  0.07971948  0.26459306  0.70045766     0.07500
C1028       C  0.12314268  0.24552714  0.68897504    -0.02630
Br1029     Br  0.12043600  0.17127263  0.67756909    -0.01180
Br1030     Br  0.18566490  0.27891020  0.65876927    -0.01250
Br1031     Br  0.01515964  0.35084789  0.72009239    -0.01210
Br1032     Br  0.13290184  0.42650562  0.71726026    -0.01190
C1033       C  0.99653395  0.72206707  0.69315080    -0.02320
C1034       C  0.99809239  0.76989370  0.70445534     0.07360
C1035       C  0.95600548  0.77578066  0.71799237    -0.02430
C1036       C  0.90381370  0.74800426  0.71617438    -0.02430
C1037       C  0.89562315  0.70821104  0.70143641     0.07500
C1038       C  0.94783884  0.68744539  0.69316689    -0.02630
Br1039     Br  0.96093604  0.61037627  0.68441841    -0.01180
Br1040     Br  0.05998865  0.70489227  0.67724086    -0.01250
Br1041     Br  0.84462942  0.77508404  0.73278859    -0.01210
Br1042     Br  0.96922421  0.82563851  0.73841530    -0.01190
C1043       C  0.95185960  0.25256739  0.76677052    -0.02320
C1044       C  0.91095255  0.22069280  0.75781863     0.07360
C1045       C  0.85939606  0.20988308  0.76627376    -0.02430
C1046       C  0.84913289  0.22884339  0.78399941    -0.02430
C1047       C  0.88334836  0.27321506  0.79165541     0.07500
C1048       C  0.93768430  0.28134068  0.78308203    -0.02630
Br1049     Br  0.99407906  0.33212135  0.79284762    -0.01180
Br1050     Br  0.02769331  0.25543039  0.75680398    -0.01250
Br1051     Br  0.79635325  0.18072286  0.79696088    -0.01210
Br1052     Br  0.80253887  0.16793671  0.75334599    -0.01190
C1053       C  0.95228121  0.25642462  0.82514631    -0.02320
C1054       C  0.90732650  0.29919712  0.82514449     0.07360
C1055       C  0.90192155  0.33119015  0.84174390    -0.02430
C1056       C  0.94678664  0.33446876  0.85388998    -0.02430
C1057       C  0.99014289  0.29343138  0.85348550     0.07500
C1058       C  0.99407952  0.25627553  0.83867516    -0.02630
Br1059     Br  0.05910258  0.20572238  0.83687807    -0.01180
Br1060     Br  0.95128751  0.18579548  0.81135425    -0.01250
Br1061     Br  0.94643550  0.39538288  0.87157526    -0.01210
Br1062     Br  0.83058875  0.35829502  0.85220547    -0.01190
C1063       C  0.85204123  0.39930794  0.78565162    -0.02320
C1064       C  0.86549408  0.37694293  0.80324631     0.07360
C1065       C  0.85592816  0.41804287  0.81699145    -0.02430
C1066       C  0.80852718  0.45454443  0.81636324    -0.02430
C1067       C  0.78386074  0.46607048  0.79961216     0.07500
C1068       C  0.80982549  0.44242616  0.78397966    -0.02630
Br1069     Br  0.78749315  0.46844375  0.76020147    -0.01180
Br1070     Br  0.89627226  0.38501797  0.76389769    -0.01250
Br1071     Br  0.78148654  0.49110845  0.83829167    -0.01210
Br1072     Br  0.92157328  0.45415794  0.82649496    -0.01190
C1073       C  0.70020461  0.31652391  0.81171631    -0.02320
C1074       C  0.68866122  0.28555664  0.82736824     0.07360
C1075       C  0.73168442  0.25530683  0.83598762    -0.02430
C1076       C  0.78806821  0.25953270  0.82987103    -0.02430
C1077       C  0.80227677  0.29545568  0.81455618     0.07500
C1078       C  0.75499424  0.31556511  0.80416925    -0.02630
Br1079     Br  0.75594701  0.32095621  0.77798650    -0.01180
Br1080     Br  0.63900343  0.35559624  0.79961607    -0.01250
Br1081     Br  0.83935716  0.20602371  0.84143726    -0.01210
Br1082     Br  0.71237273  0.20718095  0.85643735    -0.01190
C1083       C  0.63986223  0.33491414  0.89778106    -0.02320
C1084       C  0.58542704  0.31121197  0.89866790     0.07360
C1085       C  0.55640915  0.31228339  0.91561559    -0.02430
C1086       C  0.58515516  0.33118548  0.93139186    -0.02430
C1087       C  0.64293810  0.34946287  0.92973209     0.07500
C1088       C  0.65659202  0.36809179  0.91212027    -0.02630
Br1089     Br  0.63307105  0.44452995  0.90572184    -0.01180
Br1090     Br  0.68521787  0.34035317  0.87605946    -0.01250
Br1091     Br  0.54263666  0.33596005  0.95388035    -0.01210
Br1092     Br  0.47939510  0.28678780  0.91723487    -0.01190
C1093       C  0.48495811  0.98945109  0.84291778    -0.02320
C1094       C  0.53609819  0.96078435  0.84737519     0.07360
C1095       C  0.58017161  0.99225819  0.85500101    -0.02430
C1096       C  0.57373132  0.05138174  0.85766844    -0.02430
C1097       C  0.52508166  0.08072876  0.85151469     0.07500
C1098       C  0.48020133  0.04918233  0.84445684    -0.02630
Br1099     Br  0.41273908  0.08745506  0.83612224    -0.01180
Br1100     Br  0.41907552  0.94762740  0.83580655    -0.01250
Br1101     Br  0.63031381  0.09115754  0.87107250    -0.01210
Br1102     Br  0.65100113  0.95559282  0.86100897    -0.01190
C1103       C  0.49618584  0.73373547  0.91093004    -0.02320
C1104       C  0.46638105  0.74095645  0.89465169     0.07360
C1105       C  0.40840305  0.72953370  0.89491614    -0.02430
C1106       C  0.38499769  0.69961400  0.90928603    -0.02430
C1107       C  0.40678492  0.70573259  0.92695647     0.07500
C1108       C  0.46656137  0.71887925  0.92725788    -0.02630
Br1109     Br  0.51242107  0.71105934  0.94862714    -0.01180
Br1110     Br  0.57698372  0.74496776  0.91095856    -0.01250
Br1111     Br  0.35774772  0.62741734  0.90110218    -0.01210
Br1112     Br  0.35832830  0.75318711  0.87596676    -0.01190
C1113       C  0.28808921  0.72010281  0.82384902    -0.02320
C1114       C  0.26305748  0.75584093  0.80987079     0.07360
C1115       C  0.30084986  0.79592641  0.80125473    -0.02430
C1116       C  0.35854087  0.79732086  0.80603159    -0.02430
C1117       C  0.38052255  0.75850725  0.81846860     0.07500
C1118       C  0.34645466  0.71705247  0.82609169    -0.02630
Br1119     Br  0.38024497  0.65497442  0.83968839    -0.01180
Br1120     Br  0.24584191  0.67501861  0.84143093    -0.01250
Br1121     Br  0.41089261  0.84962362  0.79457562    -0.01210
Br1122     Br  0.27981790  0.85428847  0.78435336    -0.01190
C1123       C  0.15701370  0.83131796  0.78711267    -0.02320
C1124       C  0.17262327  0.77175512  0.78694663     0.07360
C1125       C  0.15567986  0.74218094  0.77061830    -0.02430
C1126       C  0.14720374  0.77250662  0.75438065    -0.02430
C1127       C  0.14852430  0.83208367  0.75424014     0.07500
C1128       C  0.14975167  0.86135905  0.77072365    -0.02630
Br1129     Br  0.14732872  0.94395823  0.77069224    -0.01180
Br1130     Br  0.14172160  0.87631099  0.80847112    -0.01250
Br1131     Br  0.13037793  0.73192809  0.73220918    -0.01210
Br1132     Br  0.13686070  0.66152138  0.76891348    -0.01190
C1133       C  0.06927077  0.73806247  0.83814247    -0.02320
C1134       C  0.09210582  0.76125276  0.85374126     0.07360
C1135       C  0.14343151  0.78971352  0.85253999    -0.02430
C1136       C  0.17722204  0.78669954  0.83668494    -0.02430
C1137       C  0.15989908  0.75242710  0.82115444     0.07500
C1138       C  0.10070259  0.73811455  0.82161806    -0.02630
Br1139     Br  0.05648264  0.72513436  0.80035103    -0.01180
Br1140     Br  0.99402454  0.70717184  0.83964337    -0.01250
Br1141     Br  0.24077927  0.83982410  0.83751553    -0.01210
Br1142     Br  0.16475907  0.83804303  0.87262513    -0.01190
C1143       C  0.20123888  0.62403132  0.80654759    -0.02320
C1144       C  0.21755180  0.67621142  0.79781563     0.07360
C1145       C  0.26464333  0.66999689  0.78510855    -0.02430
C1146       C  0.30567319  0.62772781  0.78776790    -0.02430
C1147       C  0.29265030  0.57929083  0.79799662     0.07500
C1148       C  0.23827147  0.57565704  0.80608161    -0.02630
Br1149     Br  0.21438136  0.50417576  0.81649375    -0.01180
Br1150     Br  0.12954127  0.61314786  0.81858315    -0.01250
Br1151     Br  0.38259872  0.64177745  0.77925365    -0.01210
Br1152     Br  0.28155189  0.72180599  0.76534958    -0.01190
loop_ 
_geom_bond_atom_site_label_1 
_geom_bond_atom_site_label_2 
_geom_bond_distance 
_geom_bond_site_symmetry_2 
_ccdc_geom_bond_type 
C1         C1114   1.594       .  S
C1         C1124   1.606       .  S
C1         C1137   1.612       .  S
C1         C1144   1.608       .  S
In2           O4   2.253       .  S
In2           O5   2.273       .  S
In2          O13   2.263       .  S
In2           O7   2.241       .  S
In2           O9   2.218       .  S
In2          O10   2.292       .  S
In2          O11   2.241       .  S
In2          O14   2.224       .  S
C3            O9   1.257       .  A
C3           O11   1.258       .  A
C3         C1117   1.459       .  S
O4           C12   1.257       .  A
O5           C12   1.260       .  A
C6           O13   1.264       .  A
C6            O7   1.258       .  A
C6         C1094   1.492       .  S
C8           O10   1.262       .  A
C8           O14   1.256       .  A
C8         C1104   1.492       .  S
C12         C210   1.475       .  S
In15         O17   2.251       .  S
In15         O18   2.288       .  S
In15         O26   2.283       .  S
In15         O20   2.220       .  S
In15         O22   2.224       .  S
In15         O23   2.297       .  S
In15         O24   2.237       .  S
In15         O27   2.223       .  S
C16          O22   1.259       .  A
C16          O24   1.257       .  A
C16        C1074   1.457       .  S
O17          C25   1.255       .  A
O18          C25   1.261       .  A
C19          O26   1.270       .  A
C19          O20   1.257       .  A
C19        C1097   1.490       .  S
C21          O23   1.262       .  A
C21          O27   1.254       .  A
C21        C1084   1.483       .  S
C25         C197   1.477       .  S
C28        C1047   1.576       .  S
C28        C1054   1.608       .  S
C28        C1064   1.620       .  S
C28        C1077   1.582       .  S
In29         O31   2.239       .  S
In29         O32   2.281       .  S
In29         O40   2.237       .  S
In29         O34   2.225       .  S
In29         O36   2.237       .  S
In29         O37   2.291       .  S
In29         O38   2.254       .  S
In29         O41   2.222       .  S
C30          O36   1.262   1_545  A
C30          O38   1.265   1_545  A
C30          C43   1.467       .  S
O31          C39   1.260       .  A
O32          C39   1.265       .  A
C33          O40   1.262       .  A
C33          O34   1.259       .  A
C33        C1127   1.476       .  S
C35          O37   1.261       .  A
C35          O41   1.257       .  A
C35        C1034   1.491   1_455  S
C39         C170   1.476       .  S
In42         O44   2.250       .  S
In42         O45   2.269       .  S
In42         O53   2.233       .  S
In42         O47   2.229       .  S
In42         O49   2.246       .  S
In42         O50   2.248       .  S
In42         O51   2.258   1_655  S
In42         O54   2.203   1_655  S
C43          O49   1.261   1_455  A
C43          O51   1.261       .  A
O44          C52   1.262       .  A
O45          C52   1.261       .  A
C46          O53   1.259       .  A
C46          O47   1.262       .  A
C46        C1044   1.463       .  S
C48          O50   1.263   1_455  A
C48          O54   1.257       .  A
C48        C1027   1.456       .  S
C52         C184   1.474       .  S
C55         C997   1.622       .  S
C55        C1004   1.578       .  S
C55        C1017   1.580       .  S
C55        C1107   1.606       .  S
In56         O58   2.236       .  S
In56         O59   2.280   1_455  S
In56         O67   2.255   1_455  S
In56         O61   2.192       .  S
In56         O63   2.241       .  S
In56         O64   2.267       .  S
In56         O65   2.219       .  S
In56         O68   2.237       .  S
C57          O63   1.255       .  A
C57          O65   1.264       .  A
C57         C994   1.467       .  S
O58          C66   1.252   1_455  A
O59          C66   1.261       .  A
C60          O67   1.266   1_455  A
C60          O61   1.256       .  A
C60         C984   1.470       .  S
C62          O64   1.262       .  A
C62          O68   1.257       .  A
C62        C1134   1.475       .  S
C66         C264   1.466       .  S
C69         C954   1.633       .  S
C69         C964   1.589       .  S
C69         C974   1.575       .  S
C69        C1087   1.603       .  S
In70         O72   2.247       .  S
In70         O73   2.287       .  S
In70         O81   2.271       .  S
In70         O75   2.190   1_455  S
In70         O77   2.250   1_455  S
In70         O78   2.249       .  S
In70         O79   2.236   1_455  S
In70         O82   2.247       .  S
C71          O77   1.257       .  A
C71          O79   1.256       .  A
C71         C957   1.473       .  S
O72          C80   1.253       .  A
O73          C80   1.260       .  A
C74          O81   1.266       .  A
C74          O75   1.252   1_455  A
C74         C987   1.464       .  S
C76          O78   1.262       .  A
C76          O82   1.262       .  A
C76        C1057   1.487   1_455  S
C80         C251   1.471       .  S
In83         O85   2.271       .  S
In83         O86   2.274       .  S
In83         O94   2.237       .  S
In83         O88   2.243       .  S
In83         O90   2.244       .  S
In83         O91   2.289       .  S
In83         O92   2.241       .  S
In83         O95   2.221       .  S
C84          O90   1.262       .  A
C84          O92   1.259       .  A
C84          C97   1.460   1_565  S
O85          C93   1.265       .  A
O86          C93   1.263       .  A
C87          O94   1.263       .  A
C87          O88   1.257       .  A
C87        C1007   1.485   1_554  S
C89          O91   1.262       .  A
C89          O95   1.254       .  A
C89         C944   1.475       .  S
C93         C223   1.485       .  S
In96         O98   2.257       .  S
In96         O99   2.276       .  S
In96        O107   2.237       .  S
In96        O101   2.240       .  S
In96        O103   2.242       .  S
In96        O104   2.268       .  S
In96        O105   2.246       .  S
In96        O108   2.237       .  S
C97         O103   1.259       .  A
C97         O105   1.259       .  A
O98         C106   1.265       .  A
O99         C106   1.264       .  A
C100        O107   1.263       .  A
C100        O101   1.256       .  A
C100        C967   1.476   1_554  S
C102        O104   1.261       .  A
C102        O108   1.255       .  A
C102        C937   1.474       .  S
C106        C237   1.483       .  S
C109        C894   1.596       .  S
C109        C907   1.594       .  S
C109        C917   1.610       .  S
C109        C927   1.576       .  S
In110       O112   2.182       .  S
In110       O113   2.292       .  S
In110       O121   2.266       .  S
In110       O115   2.205       .  S
In110       O117   2.233       .  S
In110       O118   2.289       .  S
In110       O119   2.221       .  S
In110       O122   2.257       .  S
C111        O117   1.260       .  A
C111        O119   1.261       .  A
C111        C897   1.457       .  S
O112        C120   1.255       .  A
O113        C120   1.267       .  A
C114        O121   1.265       .  A
C114        O115   1.251       .  A
C114        C877   1.471       .  S
C116        O118   1.261       .  A
C116        O122   1.256       .  A
C116        C417   1.478       .  S
C120        C884   1.485       .  S
In123       O125   2.236       .  S
In123       O126   2.284       .  S
In123       O134   2.277       .  S
In123       O128   2.201       .  S
In123       O130   2.234       .  S
In123       O131   2.262       .  S
In123       O132   2.237       .  S
In123       O135   2.254       .  S
C124        O130   1.259       .  A
C124        O132   1.261       .  A
C124        C854   1.461       .  S
O125        C133   1.256       .  A
O126        C133   1.261       .  A
C127        O134   1.266       .  A
C127        O128   1.252       .  A
C127        C874   1.476       .  S
C129        O131   1.260       .  A
C129        O135   1.258       .  A
C129        C430   1.470       .  S
C133        C864   1.503       .  S
C136        C824   1.608       .  S
C136        C834   1.611       .  S
C136        C844   1.608       .  S
C136        C857   1.603       .  S
In137       O139   2.227       .  S
In137       O140   2.261       .  S
In137       O148   2.253       .  S
In137       O142   2.230       .  S
In137       O144   2.258       .  S
In137       O145   2.269       .  S
In137       O146   2.254       .  S
In137       O149   2.260       .  S
C138        O144   1.262       .  A
C138        O146   1.261       .  A
C138        C151   1.471       .  S
O139        C147   1.256       .  A
O140        C147   1.261       .  A
C141        O148   1.263       .  A
C141        O142   1.259       .  A
C141        C904   1.485       .  S
C143        O145   1.263       .  A
C143        O149   1.264       .  A
C143        C389   1.481       .  S
C147        C817   1.472   1_545  S
In150       O152   2.238   1_565  S
In150       O153   2.283       .  S
In150       O161   2.248       .  S
In150       O155   2.244       .  S
In150       O157   2.258       .  S
In150       O158   2.273       .  S
In150       O159   2.254   1_565  S
In150       O162   2.250       .  S
C151        O157   1.262   1_545  A
C151        O159   1.262       .  A
O152        C160   1.256       .  A
O153        C160   1.261   1_565  A
C154        O161   1.261       .  A
C154        O155   1.260       .  A
C154        C827   1.488       .  S
C156        O158   1.265       .  A
C156        O162   1.262       .  A
C156        C404   1.478       .  S
C160        C804   1.487       .  S
C163        C787   1.591       .  S
C163        C794   1.600       .  S
C163        C887   1.618       .  S
C163       C1024   1.569       .  S
In164       O166   2.260       .  S
In164       O167   2.217       .  S
In164       O175   2.285   1_545  S
In164       O169   2.192       .  S
In164       O171   2.233       .  S
In164       O172   2.293   1_545  S
In164       O173   2.243       .  S
In164       O176   2.248       .  S
C165        O171   1.259       .  A
C165        O173   1.258       .  A
C165        C784   1.468       .  S
O166        C174   1.261       .  A
O167        C174   1.261       .  A
C168        O175   1.268   1_545  A
C168        O169   1.250       .  A
C168        C774   1.475       .  S
C170        O172   1.261       .  A
C170        O176   1.256   1_565  A
C174        C914   1.483       .  S
C177        C754   1.604       .  S
C177        C764   1.609       .  S
C177        C867   1.606       .  S
C177       C1037   1.617       .  S
In178       O180   2.235   1_545  S
In178       O181   2.270       .  S
In178       O189   2.248       .  S
In178       O183   2.237       .  S
In178       O185   2.272   1_545  S
In178       O186   2.288       .  S
In178       O187   2.216   1_545  S
In178       O190   2.245       .  S
C179        O185   1.255       .  A
C179        O187   1.260       .  A
C179        C757   1.480       .  S
O180        C188   1.261   1_565  A
O181        C188   1.264       .  A
C182        O189   1.262       .  A
C182        O183   1.257       .  A
C182        C777   1.481       .  S
C184        O186   1.262       .  A
C184        O190   1.253       .  A
C188        C837   1.485   1_545  S
In191       O193   2.188       .  S
In191       O194   2.283       .  S
In191       O202   2.252       .  S
In191       O196   2.243       .  S
In191       O198   2.276       .  S
In191       O199   2.278       .  S
In191       O200   2.270       .  S
In191       O203   2.250       .  S
C192        O198   1.260       .  A
C192        O200   1.259       .  A
C192        C205   1.478       .  S
O193        C201   1.257       .  A
O194        C201   1.267       .  A
C195        O202   1.261       .  A
C195        O196   1.265       .  A
C195        C797   1.499       .  S
C197        O199   1.263       .  A
C197        O203   1.261       .  A
C201       C1147   1.489       .  S
In204       O206   2.247       .  S
In204       O207   2.256       .  S
In204       O215   2.254       .  S
In204       O209   2.255       .  S
In204       O211   2.274       .  S
In204       O212   2.269       .  S
In204       O213   2.265       .  S
In204       O216   2.255       .  S
C205        O211   1.262       .  A
C205        O213   1.260       .  A
O206        C214   1.257       .  A
O207        C214   1.260       .  A
C208        O215   1.260       .  A
C208        O209   1.263       .  A
C208        C767   1.492       .  S
C210        O212   1.262       .  A
C210        O216   1.262       .  A
C214       C1067   1.482       .  S
In217       O219   2.225       .  S
In217       O220   2.281   1_545  S
In217       O228   2.286   1_545  S
In217       O222   2.216       .  S
In217       O224   2.200       .  S
In217       O225   2.288   1_545  S
In217       O226   2.244       .  S
In217       O229   2.276   1_545  S
C218        O224   1.258       .  A
C218        O226   1.262       .  A
C218        C727   1.458       .  S
O219        C227   1.255       .  A
O220        C227   1.266   1_565  A
C221        O228   1.267   1_545  A
C221        O222   1.252       .  A
C221        C734   1.484       .  S
C223        O225   1.261       .  A
C223        O229   1.258       .  A
C227        C747   1.477       .  S
C230        C707   1.619       .  S
C230        C717   1.585       .  S
C230        C724   1.580       .  S
C230        C934   1.600       .  S
In231       O233   2.221   1_545  S
In231       O234   2.272       .  S
In231       O242   2.285       .  S
In231       O236   2.233       .  S
In231       O238   2.224   1_545  S
In231       O239   2.314       .  S
In231       O240   2.268   1_545  S
In231       O243   2.271       .  S
C232        O238   1.254       .  A
C232        O240   1.260       .  A
C232        C684   1.460       .  S
O233        C241   1.264   1_565  A
O234        C241   1.267       .  A
C235        O242   1.264       .  A
C235        O236   1.252       .  A
C235        C737   1.494       .  S
C237        O239   1.257       .  A
C237        O243   1.249       .  A
C241        C694   1.474   1_545  S
C244        C667   1.600       .  S
C244        C674   1.614       .  S
C244        C687   1.585       .  S
C244        C947   1.582       .  S
In245       O247   2.203       .  S
In245       O248   2.271       .  S
In245       O256   2.235       .  S
In245       O250   2.261       .  S
In245       O252   2.266       .  S
In245       O253   2.266       .  S
In245       O254   2.259       .  S
In245       O257   2.247       .  S
C246        O252   1.265       .  A
C246        O254   1.263       .  A
C246        C259   1.477       .  S
O247        C255   1.259       .  A
O248        C255   1.258       .  A
C249        O256   1.257       .  A
C249        O250   1.265       .  A
C249        C704   1.492   1_556  S
C251        O253   1.261       .  A
C251        O257   1.261       .  A
C255       C1014   1.477       .  S
In258       O260   2.174       .  S
In258       O261   2.275       .  S
In258       O269   2.261       .  S
In258       O263   2.219       .  S
In258       O265   2.272   1_655  S
In258       O266   2.251       .  S
In258       O267   2.267       .  S
In258       O270   2.232       .  S
C259        O265   1.260       .  A
C259        O267   1.260   1_455  A
O260        C268   1.252       .  A
O261        C268   1.263       .  A
C262        O269   1.265       .  A
C262        O263   1.260       .  A
C262        C664   1.493   1_556  S
C264        O266   1.262       .  A
C264        O270   1.264       .  A
C268        C977   1.467       .  S
C271        C637   1.611       .  S
C271        C644   1.612       .  S
C271        C654   1.590       .  S
C271        C744   1.591       .  S
In272       O274   2.234       .  S
In272       O275   2.287       .  S
In272       O283   2.282       .  S
In272       O277   2.217       .  S
In272       O279   2.256       .  S
In272       O280   2.286       .  S
In272       O281   2.237       .  S
In272       O284   2.246       .  S
C273        O279   1.256       .  A
C273        O281   1.257       .  A
C273        C634   1.467       .  S
O274        C282   1.259       .  A
O275        C282   1.263       .  A
C276        O283   1.268       .  A
C276        O277   1.255       .  A
C276        C624   1.483       .  S
C278        O280   1.262       .  A
C278        O284   1.256       .  A
C278        C363   1.475       .  S
C282        C714   1.488       .  S
In285       O287   2.297       .  S
In285       O288   2.210       .  S
In285       O296   2.277       .  S
In285       O290   2.217       .  S
In285       O292   2.268       .  S
In285       O293   2.290       .  S
In285       O294   2.184       .  S
In285       O297   2.274       .  S
C286        O292   1.263       .  A
C286        O294   1.262       .  A
C286        C614   1.473       .  S
O287        C295   1.266       .  A
O288        C295   1.257       .  A
C289        O296   1.265       .  A
C289        O290   1.251       .  A
C289        C627   1.484       .  S
C291        O293   1.259       .  A
C291        O297   1.257       .  A
C291        C376   1.483       .  S
C295        C677   1.489       .  S
C298        C594   1.621       .  S
C298        C604   1.601       .  S
C298        C617   1.616       .  S
C298        C697   1.597       .  S
In299       O301   2.246       .  S
In299       O302   2.248       .  S
In299       O310   2.248       .  S
In299       O304   2.268       .  S
In299       O306   2.271       .  S
In299       O307   2.265       .  S
In299       O308   2.254       .  S
In299       O311   2.268       .  S
C300        O306   1.262       .  A
C300        O308   1.259       .  A
C300        C313   1.473   1_545  S
O301        C309   1.259       .  A
O302        C309   1.262       .  A
C303        O310   1.260       .  A
C303        O304   1.265       .  A
C303        C647   1.492       .  S
C305        O307   1.261       .  A
C305        O311   1.264       .  A
C305        C335   1.479       .  S
C309        C587   1.479   1_545  S
In312       O314   2.212   1_565  S
In312       O315   2.278       .  S
In312       O323   2.255       .  S
In312       O317   2.231       .  S
In312       O319   2.264       .  S
In312       O320   2.261       .  S
In312       O321   2.252       .  S
In312       O324   2.239       .  S
C313        O319   1.263   1_455  A
C313        O321   1.262   1_455  A
O314        C322   1.258       .  A
O315        C322   1.259   1_565  A
C316        O323   1.263       .  A
C316        O317   1.260       .  A
C316        C597   1.486       .  S
C318        O320   1.262       .  A
C318        O324   1.262       .  A
C318        C349   1.469       .  S
C322        C574   1.480       .  S
In325       O327   2.267       .  S
In325       O328   2.275       .  S
In325       O336   2.284       .  S
In325       O330   2.217   1_455  S
In325       O332   2.249   1_455  S
In325       O333   2.294       .  S
In325       O334   2.197   1_455  S
In325       O337   2.205   1_455  S
C326        O332   1.262       .  A
C326        O334   1.262       .  A
C326        C544   1.464       .  S
O327        C335   1.258       .  A
O328        C335   1.261       .  A
C329        O336   1.265       .  A
C329        O330   1.252   1_455  A
C329        C557   1.483       .  S
C331        O333   1.266   1_655  A
C331        O337   1.254       .  A
C331        C567   1.489       .  S
C338        C524   1.610       .  S
C338        C534   1.618       .  S
C338        C547   1.594       .  S
C338        C577   1.607       .  S
In339       O341   2.241   1_455  S
In339       O342   2.280   1_455  S
In339       O350   2.275   1_455  S
In339       O344   2.222       .  S
In339       O346   2.216       .  S
In339       O347   2.273       .  S
In339       O348   2.228       .  S
In339       O351   2.224       .  S
C340        O346   1.260       .  A
C340        O348   1.259       .  A
C340        C507   1.453       .  S
O341        C349   1.253       .  A
O342        C349   1.261       .  A
C343        O350   1.267   1_455  A
C343        O344   1.256       .  A
C343        C554   1.481       .  S
C345        O347   1.265       .  A
C345        O351   1.256       .  A
C345        C514   1.481       .  S
C352        C484   1.583       .  S
C352        C494   1.608       .  S
C352        C504   1.577       .  S
C352        C584   1.620       .  S
In353       O355   2.246       .  S
In353       O356   2.277       .  S
In353       O364   2.244       .  S
In353       O358   2.230       .  S
In353       O360   2.254       .  S
In353       O361   2.262       .  S
In353       O362   2.241       .  S
In353       O365   2.213       .  S
C354        O360   1.265       .  A
C354        O362   1.264       .  A
C354        C367   1.469       .  S
O355        C363   1.260       .  A
O356        C363   1.262       .  A
C357        O364   1.260       .  A
C357        O358   1.263       .  A
C357        C487   1.468       .  S
C359        O361   1.260       .  A
C359        O365   1.257       .  A
C359        C607   1.486       .  S
In366       O368   2.266       .  S
In366       O369   2.280       .  S
In366       O377   2.236       .  S
In366       O371   2.274       .  S
In366       O373   2.263       .  S
In366       O374   2.283       .  S
In366       O375   2.245       .  S
In366       O378   2.248       .  S
C367        O373   1.262       .  A
C367        O375   1.260       .  A
O368        C376   1.262       .  A
O369        C376   1.263       .  A
C370        O377   1.262       .  A
C370        O371   1.260       .  A
C370        C527   1.484       .  S
C372        O374   1.260       .  A
C372        O378   1.256       .  A
C372        C657   1.483       .  S
In379       O381   2.268       .  S
In379       O382   2.288       .  S
In379       O390   2.277       .  S
In379       O384   2.244       .  S
In379       O386   2.216       .  S
In379       O387   2.296       .  S
In379       O388   2.269       .  S
In379       O391   2.229       .  S
C380        O386   1.255       .  A
C380        O388   1.262       .  A
C380        C464   1.476       .  S
O381        C389   1.256       .  A
O382        C389   1.260       .  A
C383        O390   1.266       .  A
C383        O384   1.258       .  A
C383        C474   1.493       .  S
C385        O387   1.262       .  A
C385        O391   1.258       .  A
C385        C537   1.481       .  S
C392        C457   1.584       .  S
C392        C467   1.588       .  S
C392        C564   1.604       .  S
C392        C807   1.617       .  S
C393        C434   1.603       .  S
C393        C447   1.619       .  S
C393        C517   1.614       .  S
C393        C814   1.604       .  S
In394       O396   2.265       .  S
In394       O397   2.284       .  S
In394       O405   2.282       .  S
In394       O399   2.241       .  S
In394       O401   2.230       .  S
In394       O402   2.311       .  S
In394       O403   2.249       .  S
In394       O406   2.191       .  S
C395        O401   1.258       .  A
C395        O403   1.263       .  A
C395        C437   1.465       .  S
O396        C404   1.257       .  A
O397        C404   1.258       .  A
C398        O405   1.264       .  A
C398        O399   1.256       .  A
C398        C477   1.485       .  S
C400        O402   1.265       .  A
C400        O406   1.249       .  A
C400        C497   1.483       .  S
In407       O409   2.254       .  S
In407       O410   2.276       .  S
In407       O418   2.254       .  S
In407       O412   2.242       .  S
In407       O414   2.260       .  S
In407       O415   2.290       .  S
In407       O416   2.258       .  S
In407       O419   2.191       .  S
C408        O414   1.260       .  A
C408        O416   1.260       .  A
C408        C421   1.470       .  S
O409        C417   1.261       .  A
O410        C417   1.262       .  A
C411        O418   1.262       .  A
C411        O412   1.262       .  A
C411        C444   1.478       .  S
C413        O415   1.266       .  A
C413        O419   1.256       .  A
C413        C847   1.492   1_455  S
In420       O422   2.255       .  S
In420       O423   2.253       .  S
In420       O431   2.228       .  S
In420       O425   2.237       .  S
In420       O427   2.262       .  S
In420       O428   2.252       .  S
In420       O429   2.254   1_655  S
In420       O432   2.207   1_655  S
C421        O427   1.262   1_455  A
C421        O429   1.259       .  A
O422        C430   1.262       .  A
O423        C430   1.260       .  A
C424        O431   1.259       .  A
C424        O425   1.264       .  A
C424        C454   1.469       .  S
C426        O428   1.263   1_455  A
C426        O432   1.258       .  A
C426        C924   1.459       .  S
C433        C434   1.466       .  A
C433        C438   1.406       .  A
C433       Br440   1.946       .  S
C434        C435   1.450       .  A
C435        C436   1.415       .  A
C435       Br442   1.924       .  S
C436        C437   1.396       .  A
C436       Br441   1.944       .  S
C437        C438   1.386       .  A
C438       Br439   1.946       .  S
C443        C444   1.399       .  A
C443        C448   1.416       .  A
C443       Br450   1.939       .  S
C444        C445   1.389       .  A
C445        C446   1.411       .  A
C445       Br452   1.939       .  S
C446        C447   1.466       .  A
C446       Br451   1.958       .  S
C447        C448   1.448       .  A
C448       Br449   1.933       .  S
C453        C454   1.390       .  A
C453        C458   1.408       .  A
C453       Br460   1.942       .  S
C454        C455   1.400       .  A
C455        C456   1.410       .  A
C455       Br462   1.933   1_655  S
C456        C457   1.439       .  A
C456       Br461   1.928       .  S
C457        C458   1.455       .  A
C458       Br459   1.939       .  S
C463        C464   1.402       .  A
C463        C468   1.405       .  A
C463       Br470   1.937       .  S
C464        C465   1.405       .  A
C465        C466   1.403       .  A
C465       Br472   1.919       .  S
C466        C467   1.442       .  A
C466       Br471   1.950       .  S
C467        C468   1.433       .  A
C468       Br469   1.934       .  S
C473        C474   1.410       .  A
C473        C478   1.411       .  A
C473       Br480   1.932       .  S
C474        C475   1.422       .  A
C475        C476   1.412       .  A
C475       Br482   1.928       .  S
C476        C477   1.404       .  A
C476       Br481   1.931       .  S
C477        C478   1.415       .  A
C478       Br479   1.929       .  S
C483        C484   1.431       .  A
C483        C488   1.412       .  A
C483       Br490   1.950       .  S
C484        C485   1.455       .  A
C485        C486   1.405       .  A
C485       Br492   1.937       .  S
C486        C487   1.388       .  A
C486       Br491   1.945       .  S
C487        C488   1.403       .  A
C488       Br489   1.925       .  S
C493        C494   1.439       .  A
C493        C498   1.396       .  A
C493       Br500   1.946       .  S
C494        C495   1.458       .  A
C495        C496   1.424       .  A
C495       Br502   1.943       .  S
C496        C497   1.402       .  A
C496       Br501   1.936       .  S
C497        C498   1.395       .  A
C498       Br499   1.942       .  S
C503        C504   1.442       .  A
C503        C508   1.402       .  A
C503       Br510   1.938       .  S
C504        C505   1.446       .  A
C505        C506   1.405       .  A
C505       Br512   1.945       .  S
C506        C507   1.395       .  A
C506       Br511   1.939       .  S
C507        C508   1.391       .  A
C508       Br509   1.936       .  S
C513        C514   1.396       .  A
C513        C518   1.412       .  A
C513       Br520   1.939       .  S
C514        C515   1.401       .  A
C515        C516   1.419       .  A
C515       Br522   1.939       .  S
C516        C517   1.448       .  A
C516       Br521   1.928       .  S
C517        C518   1.459       .  A
C518       Br519   1.956       .  S
C523        C524   1.427       .  A
C523        C528   1.403       .  A
C523       Br530   1.935       .  S
C524        C525   1.463       .  A
C525        C526   1.416       .  A
C525       Br532   1.957       .  S
C526        C527   1.398       .  A
C526       Br531   1.942       .  S
C527        C528   1.400       .  A
C528       Br529   1.927       .  S
C533        C534   1.461       .  A
C533        C538   1.436       .  A
C533       Br540   1.918       .  S
C534        C535   1.430       .  A
C535        C536   1.389       .  A
C535       Br542   1.927       .  S
C536        C537   1.380       .  A
C536       Br541   1.920       .  S
C537        C538   1.399       .  A
C538       Br539   1.932       .  S
C543        C544   1.392       .  A
C543        C548   1.385       .  A
C543       Br550   1.936       .  S
C544        C545   1.409       .  A
C545        C546   1.419       .  A
C545       Br552   1.933       .  S
C546        C547   1.453       .  A
C546       Br551   1.946       .  S
C547        C548   1.435       .  A
C548       Br549   1.927       .  S
C553        C554   1.414       .  A
C553        C558   1.409       .  A
C553       Br560   1.934       .  S
C554        C555   1.409       .  A
C555        C556   1.410       .  A
C555       Br562   1.930   1_455  S
C556        C557   1.416       .  A
C556       Br561   1.934   1_455  S
C557        C558   1.410       .  A
C558       Br559   1.932       .  S
C563        C564   1.453       .  A
C563        C568   1.408       .  A
C563       Br570   1.955       .  S
C564        C565   1.457       .  A
C565        C566   1.420       .  A
C565       Br572   1.948       .  S
C566        C567   1.400       .  A
C566       Br571   1.940   1_655  S
C567        C568   1.399       .  A
C568       Br569   1.943       .  S
C573        C574   1.387       .  A
C573        C578   1.405       .  A
C573       Br580   1.948       .  S
C574        C575   1.391       .  A
C575        C576   1.424       .  A
C575       Br582   1.936   1_545  S
C576        C577   1.464       .  A
C576       Br581   1.943       .  S
C577        C578   1.457       .  A
C578       Br579   1.935       .  S
C583        C584   1.437       .  A
C583        C588   1.422       .  A
C583       Br590   1.925       .  S
C584        C585   1.412       .  A
C585        C586   1.402       .  A
C585       Br592   1.920       .  S
C586        C587   1.399       .  A
C586       Br591   1.925       .  S
C587        C588   1.410       .  A
C588       Br589   1.930       .  S
C593        C594   1.451       .  A
C593        C598   1.415       .  A
C593       Br600   1.954       .  S
C594        C595   1.433       .  A
C595        C596   1.412       .  A
C595       Br602   1.937       .  S
C596        C597   1.403       .  A
C596       Br601   1.937       .  S
C597        C598   1.408       .  A
C598       Br599   1.940       .  S
C603        C604   1.453       .  A
C603        C608   1.422       .  A
C603       Br610   1.933       .  S
C604        C605   1.461       .  A
C605        C606   1.401       .  A
C605       Br612   1.962       .  S
C606        C607   1.400       .  A
C606       Br611   1.950       .  S
C607        C608   1.402       .  A
C608       Br609   1.941       .  S
C613        C614   1.384       .  A
C613        C618   1.383       .  A
C613       Br620   1.937       .  S
C614        C615   1.408       .  A
C615        C616   1.431       .  A
C615       Br622   1.939       .  S
C616        C617   1.449       .  A
C616       Br621   1.916       .  S
C617        C618   1.448       .  A
C618       Br619   1.936       .  S
C623        C624   1.407       .  A
C623        C628   1.411       .  A
C623       Br630   1.931       .  S
C624        C625   1.416       .  A
C625        C626   1.407       .  A
C625       Br632   1.931       .  S
C626        C627   1.410   1_455  A
C626       Br631   1.934   1_455  S
C627        C628   1.419   1_655  A
C628       Br629   1.935   1_455  S
C633        C634   1.391       .  A
C633        C638   1.398       .  A
C633       Br640   1.921       .  S
C634        C635   1.401       .  A
C635        C636   1.416       .  A
C635       Br642   1.938       .  S
C636        C637   1.459       .  A
C636       Br641   1.941       .  S
C637        C638   1.419       .  A
C638       Br639   1.925       .  S
C643        C644   1.432       .  A
C643        C648   1.407       .  A
C643       Br650   1.939       .  S
C644        C645   1.449       .  A
C645        C646   1.423       .  A
C645       Br652   1.945       .  S
C646        C647   1.409       .  A
C646       Br651   1.938       .  S
C647        C648   1.405       .  A
C648       Br649   1.934       .  S
C653        C654   1.428       .  A
C653        C658   1.402       .  A
C653       Br660   1.916       .  S
C654        C655   1.442       .  A
C655        C656   1.422       .  A
C655       Br662   1.940       .  S
C656        C657   1.408       .  A
C656       Br661   1.925       .  S
C657        C658   1.397       .  A
C658       Br659   1.932       .  S
C663        C664   1.407       .  A
C663        C668   1.409       .  A
C663       Br670   1.933   1_554  S
C664        C665   1.404       .  A
C665        C666   1.415       .  A
C665       Br672   1.947       .  S
C666        C667   1.453       .  A
C666       Br671   1.935       .  S
C667        C668   1.444       .  A
C668       Br669   1.944       .  S
C673        C674   1.441       .  A
C673        C678   1.409       .  A
C673       Br680   1.941       .  S
C674        C675   1.430       .  A
C675        C676   1.420       .  A
C675       Br682   1.933       .  S
C676        C677   1.410       .  A
C676       Br681   1.926       .  S
C677        C678   1.407       .  A
C678       Br679   1.941       .  S
C683        C684   1.391       .  A
C683        C688   1.384       .  A
C683       Br690   1.930       .  S
C684        C685   1.408       .  A
C685        C686   1.414       .  A
C685       Br692   1.905       .  S
C686        C687   1.432       .  A
C686       Br691   1.924       .  S
C687        C688   1.435       .  A
C688       Br689   1.932       .  S
C693        C694   1.378       .  A
C693        C698   1.394       .  A
C693       Br700   1.927       .  S
C694        C695   1.395   1_565  A
C695        C696   1.425   1_545  A
C695       Br702   1.925       .  S
C696        C697   1.454       .  A
C696       Br701   1.922   1_565  S
C697        C698   1.452       .  A
C698       Br699   1.932       .  S
C703        C704   1.416       .  A
C703        C708   1.432       .  A
C703       Br710   1.941       .  S
C704        C705   1.401       .  A
C705        C706   1.390       .  A
C705       Br712   1.931   1_554  S
C706        C707   1.432       .  A
C706       Br711   1.940       .  S
C707        C708   1.456       .  A
C708       Br709   1.940       .  S
C713        C714   1.403       .  A
C713        C718   1.396       .  A
C713       Br720   1.921       .  S
C714        C715   1.407       .  A
C715        C716   1.424       .  A
C715       Br722   1.926       .  S
C716        C717   1.434       .  A
C716       Br721   1.934       .  S
C717        C718   1.442       .  A
C718       Br719   1.960       .  S
C723        C724   1.437       .  A
C723        C728   1.402       .  A
C723       Br730   1.924       .  S
C724        C725   1.440       .  A
C725        C726   1.403       .  A
C725       Br732   1.928       .  S
C726        C727   1.394       .  A
C726       Br731   1.936       .  S
C727        C728   1.399       .  A
C728       Br729   1.933       .  S
C733        C734   1.403   1_565  A
C733        C738   1.410   1_455  A
C733       Br740   1.933       .  S
C734        C735   1.415       .  A
C735        C736   1.410   1_455  A
C735       Br742   1.929       .  S
C736        C737   1.411       .  A
C736       Br741   1.933       .  S
C737        C738   1.425   1_545  A
C738       Br739   1.930       .  S
C743        C744   1.449       .  A
C743        C748   1.412       .  A
C743       Br750   1.934       .  S
C744        C745   1.448       .  A
C745        C746   1.417       .  A
C745       Br752   1.945       .  S
C746        C747   1.400       .  A
C746       Br751   1.933       .  S
C747        C748   1.395       .  A
C748       Br749   1.942       .  S
C753        C754   1.457       .  A
C753        C758   1.431       .  A
C753       Br760   1.936       .  S
C754        C755   1.425       .  A
C755        C756   1.375       .  A
C755       Br762   1.927       .  S
C756        C757   1.392       .  A
C756       Br761   1.930       .  S
C757        C758   1.413       .  A
C758       Br759   1.935       .  S
C763        C764   1.448       .  A
C763        C768   1.410       .  A
C763       Br770   1.925       .  S
C764        C765   1.460       .  A
C765        C766   1.425       .  A
C765       Br772   1.925       .  S
C766        C767   1.401       .  A
C766       Br771   1.947       .  S
C767        C768   1.399       .  A
C768       Br769   1.938       .  S
C773        C774   1.415       .  A
C773        C778   1.405       .  A
C773       Br780   1.935       .  S
C774        C775   1.405   1_545  A
C775        C776   1.408       .  A
C775       Br782   1.933       .  S
C776        C777   1.421   1_565  A
C776       Br781   1.933       .  S
C777        C778   1.408       .  A
C778       Br779   1.932       .  S
C783        C784   1.394       .  A
C783        C788   1.386       .  A
C783       Br790   1.928       .  S
C784        C785   1.414       .  A
C785        C786   1.422       .  A
C785       Br792   1.919       .  S
C786        C787   1.428       .  A
C786       Br791   1.918       .  S
C787        C788   1.429       .  A
C788       Br789   1.929       .  S
C793        C794   1.443       .  A
C793        C798   1.412       .  A
C793       Br800   1.938       .  S
C794        C795   1.452       .  A
C795        C796   1.417       .  A
C795       Br802   1.950       .  S
C796        C797   1.408       .  A
C796       Br801   1.941       .  S
C797        C798   1.407       .  A
C798       Br799   1.943       .  S
C803        C804   1.408       .  A
C803        C808   1.410       .  A
C803       Br810   1.935       .  S
C804        C805   1.406       .  A
C805        C806   1.420       .  A
C805       Br812   1.928       .  S
C806        C807   1.434       .  A
C806       Br811   1.935       .  S
C807        C808   1.424       .  A
C808       Br809   1.935       .  S
C813        C814   1.443       .  A
C813        C818   1.418       .  A
C813       Br820   1.925       .  S
C814        C815   1.460       .  A
C815        C816   1.407       .  A
C815       Br822   1.936       .  S
C816        C817   1.386       .  A
C816       Br821   1.941   1_565  S
C817        C818   1.400       .  A
C818       Br819   1.938   1_565  S
C823        C824   1.445       .  A
C823        C828   1.409       .  A
C823       Br830   1.947       .  S
C824        C825   1.445       .  A
C825        C826   1.422       .  A
C825       Br832   1.926       .  S
C826        C827   1.406       .  A
C826       Br831   1.940       .  S
C827        C828   1.404       .  A
C828       Br829   1.942       .  S
C833        C834   1.443       .  A
C833        C838   1.382       .  A
C833       Br840   1.955       .  S
C834        C835   1.445       .  A
C835        C836   1.434   1_565  A
C835       Br842   1.931   1_565  S
C836        C837   1.412   1_545  A
C836       Br841   1.927       .  S
C837        C838   1.392       .  A
C838       Br839   1.927       .  S
C843        C844   1.444       .  A
C843        C848   1.429       .  A
C843       Br850   1.920       .  S
C844        C845   1.444       .  A
C845        C846   1.395       .  A
C845       Br852   1.936       .  S
C846        C847   1.402       .  A
C846       Br851   1.944       .  S
C847        C848   1.413       .  A
C848       Br849   1.934   1_655  S
C853        C854   1.382       .  A
C853        C858   1.394       .  A
C853       Br860   1.934       .  S
C854        C855   1.395       .  A
C855        C856   1.418       .  A
C855       Br862   1.936       .  S
C856        C857   1.449       .  A
C856       Br861   1.925       .  S
C857        C858   1.464       .  A
C858       Br859   1.954       .  S
C863        C864   1.393       .  A
C863        C868   1.403       .  A
C863       Br870   1.938       .  S
C864        C865   1.406       .  A
C865        C866   1.431       .  A
C865       Br872   1.943       .  S
C866        C867   1.464       .  A
C866       Br871   1.940       .  S
C867        C868   1.445       .  A
C868       Br869   1.928       .  S
C873        C874   1.413       .  A
C873        C878   1.404       .  A
C873       Br880   1.932       .  S
C874        C875   1.411       .  A
C875        C876   1.408       .  A
C875       Br882   1.930       .  S
C876        C877   1.413       .  A
C876       Br881   1.934       .  S
C877        C878   1.409       .  A
C878       Br879   1.934       .  S
C883        C884   1.406       .  A
C883        C888   1.401       .  A
C883       Br890   1.946       .  S
C884        C885   1.413       .  A
C885        C886   1.421       .  A
C885       Br892   1.925       .  S
C886        C887   1.427       .  A
C886       Br891   1.930       .  S
C887        C888   1.441       .  A
C888       Br889   1.942       .  S
C893        C894   1.436       .  A
C893        C898   1.419       .  A
C893       Br900   1.919       .  S
C894        C895   1.439       .  A
C895        C896   1.390       .  A
C895       Br902   1.929       .  S
C896        C897   1.386       .  A
C896       Br901   1.929       .  S
C897        C898   1.405       .  A
C898       Br899   1.927       .  S
C903        C904   1.404       .  A
C903        C908   1.410       .  A
C903       Br910   1.937       .  S
C904        C905   1.400       .  A
C905        C906   1.412       .  A
C905       Br912   1.945       .  S
C906        C907   1.450       .  A
C906       Br911   1.930       .  S
C907        C908   1.447       .  A
C908       Br909   1.945       .  S
C913        C914   1.412       .  A
C913        C918   1.421       .  A
C913       Br920   1.930   1_545  S
C914        C915   1.406       .  A
C915        C916   1.395       .  A
C915       Br922   1.937       .  S
C916        C917   1.437       .  A
C916       Br921   1.941       .  S
C917        C918   1.434       .  A
C918       Br919   1.936       .  S
C923        C924   1.408       .  A
C923        C928   1.419       .  A
C923       Br930   1.927       .  S
C924        C925   1.391       .  A
C925        C926   1.386       .  A
C925       Br932   1.941       .  S
C926        C927   1.439       .  A
C926       Br931   1.939       .  S
C927        C928   1.435       .  A
C928       Br929   1.929       .  S
C933        C934   1.424       .  A
C933        C938   1.426       .  A
C933       Br940   1.922       .  S
C934        C935   1.431       .  A
C935        C936   1.393       .  A
C935       Br942   1.933       .  S
C936        C937   1.392       .  A
C936       Br941   1.929       .  S
C937        C938   1.417       .  A
C938       Br939   1.924       .  S
C943        C944   1.395       .  A
C943        C948   1.391       .  A
C943       Br950   1.942       .  S
C944        C945   1.413       .  A
C945        C946   1.423       .  A
C945       Br952   1.918       .  S
C946        C947   1.430       .  A
C946       Br951   1.931       .  S
C947        C948   1.441       .  A
C948       Br949   1.939       .  S
C953        C954   1.465       .  A
C953        C958   1.415       .  A
C953       Br960   1.938       .  S
C954        C955   1.469       .  A
C955        C956   1.404       .  A
C955       Br962   1.933       .  S
C956        C957   1.384       .  A
C956       Br961   1.951       .  S
C957        C958   1.393       .  A
C958       Br959   1.942       .  S
C963        C964   1.442       .  A
C963        C968   1.396       .  A
C963       Br970   1.940       .  S
C964        C965   1.439       .  A
C965        C966   1.424       .  A
C965       Br972   1.944       .  S
C966        C967   1.410       .  A
C966       Br971   1.931       .  S
C967        C968   1.399       .  A
C968       Br969   1.946   1_556  S
C973        C974   1.437       .  A
C973        C978   1.393       .  A
C973       Br980   1.932       .  S
C974        C975   1.431       .  A
C975        C976   1.416       .  A
C975       Br982   1.935       .  S
C976        C977   1.410       .  A
C976       Br981   1.928       .  S
C977        C978   1.402       .  A
C978       Br979   1.950       .  S
C983        C984   1.414       .  A
C983        C988   1.406   1_565  A
C983       Br990   1.933       .  S
C984        C985   1.412       .  A
C985        C986   1.402   1_565  A
C985       Br992   1.933       .  S
C986        C987   1.406       .  A
C986       Br991   1.932       .  S
C987        C988   1.407       .  A
C988       Br989   1.928       .  S
C993        C994   1.381       .  A
C993        C998   1.380       .  A
C993      Br1000   1.936       .  S
C994        C995   1.400       .  A
C995        C996   1.426       .  A
C995      Br1002   1.944       .  S
C996        C997   1.465       .  A
C996      Br1001   1.940       .  S
C997        C998   1.437       .  A
C998       Br999   1.925       .  S
C1003      C1004   1.437       .  A
C1003      C1008   1.423       .  A
C1003     Br1010   1.941       .  S
C1004      C1005   1.432       .  A
C1005      C1006   1.397       .  A
C1005     Br1012   1.944       .  S
C1006      C1007   1.406       .  A
C1006     Br1011   1.937   1_556  S
C1007      C1008   1.416       .  A
C1008     Br1009   1.933       .  S
C1013      C1014   1.402       .  A
C1013      C1018   1.417       .  A
C1013     Br1020   1.928       .  S
C1014      C1015   1.397       .  A
C1015      C1016   1.399       .  A
C1015     Br1022   1.939       .  S
C1016      C1017   1.442       .  A
C1016     Br1021   1.925       .  S
C1017      C1018   1.442       .  A
C1018     Br1019   1.932       .  S
C1023      C1024   1.437       .  A
C1023      C1028   1.384       .  A
C1023     Br1030   1.936       .  S
C1024      C1025   1.433       .  A
C1025      C1026   1.418       .  A
C1025     Br1032   1.932       .  S
C1026      C1027   1.409       .  A
C1026     Br1031   1.927       .  S
C1027      C1028   1.391       .  A
C1028     Br1029   1.940       .  S
C1033      C1034   1.401       .  A
C1033      C1038   1.418       .  A
C1033     Br1040   1.929   1_655  S
C1034      C1035   1.404       .  A
C1035      C1036   1.412       .  A
C1035     Br1042   1.941       .  S
C1036      C1037   1.451       .  A
C1036     Br1041   1.947       .  S
C1037      C1038   1.448       .  A
C1038     Br1039   1.943       .  S
C1043      C1044   1.404       .  A
C1043      C1048   1.414       .  A
C1043     Br1050   1.929   1_655  S
C1044      C1045   1.387       .  A
C1045      C1046   1.398       .  A
C1045     Br1052   1.940       .  S
C1046      C1047   1.448       .  A
C1046     Br1051   1.937       .  S
C1047      C1048   1.438       .  A
C1048     Br1049   1.948       .  S
C1053      C1054   1.455       .  A
C1053      C1058   1.417       .  A
C1053     Br1060   1.948       .  S
C1054      C1055   1.440       .  A
C1055      C1056   1.403       .  A
C1055     Br1062   1.944       .  S
C1056      C1057   1.399       .  A
C1056     Br1061   1.937       .  S
C1057      C1058   1.400       .  A
C1058     Br1059   1.935   1_655  S
C1063      C1064   1.440       .  A
C1063      C1068   1.421       .  A
C1063     Br1070   1.929       .  S
C1064      C1065   1.414       .  A
C1065      C1066   1.405       .  A
C1065     Br1072   1.921       .  S
C1066      C1067   1.401       .  A
C1066     Br1071   1.928       .  S
C1067      C1068   1.409       .  A
C1068     Br1069   1.939       .  S
C1073      C1074   1.391       .  A
C1073      C1078   1.402       .  A
C1073     Br1080   1.936       .  S
C1074      C1075   1.397       .  A
C1075      C1076   1.406       .  A
C1075     Br1082   1.939       .  S
C1076      C1077   1.449       .  A
C1076     Br1081   1.945       .  S
C1077      C1078   1.442       .  A
C1078     Br1079   1.937       .  S
C1083      C1084   1.410       .  A
C1083      C1088   1.380       .  A
C1083     Br1090   1.920       .  S
C1084      C1085   1.417       .  A
C1085      C1086   1.431       .  A
C1085     Br1092   1.926       .  S
C1086      C1087   1.441       .  A
C1086     Br1091   1.929       .  S
C1087      C1088   1.406       .  A
C1088     Br1089   1.936       .  S
C1093      C1094   1.421       .  A
C1093      C1098   1.412   1_565  A
C1093     Br1100   1.932       .  S
C1094      C1095   1.410       .  A
C1095      C1096   1.410   1_565  A
C1095     Br1102   1.933       .  S
C1096      C1097   1.416       .  A
C1096     Br1101   1.928       .  S
C1097      C1098   1.409       .  A
C1098     Br1099   1.932       .  S
C1103      C1104   1.412       .  A
C1103      C1108   1.430       .  A
C1103     Br1110   1.932       .  S
C1104      C1105   1.400       .  A
C1105      C1106   1.385       .  A
C1105     Br1112   1.926       .  S
C1106      C1107   1.418       .  A
C1106     Br1111   1.923       .  S
C1107      C1108   1.451       .  A
C1108     Br1109   1.937       .  S
C1113      C1114   1.460       .  A
C1113      C1118   1.394       .  A
C1113     Br1120   1.947       .  S
C1114      C1115   1.447       .  A
C1115      C1116   1.416       .  A
C1115     Br1122   1.922       .  S
C1116      C1117   1.397       .  A
C1116     Br1121   1.940       .  S
C1117      C1118   1.386       .  A
C1118     Br1119   1.943       .  S
C1123      C1124   1.444       .  A
C1123      C1128   1.413       .  A
C1123     Br1130   1.925       .  S
C1124      C1125   1.455       .  A
C1125      C1126   1.411       .  A
C1125     Br1132   1.958       .  S
C1126      C1127   1.402       .  A
C1126     Br1131   1.943       .  S
C1127      C1128   1.398       .  A
C1128     Br1129   1.942       .  S
C1133      C1134   1.393       .  A
C1133      C1138   1.418       .  A
C1133     Br1140   1.932   1_455  S
C1134      C1135   1.395       .  A
C1135      C1136   1.407       .  A
C1135     Br1142   1.944       .  S
C1136      C1137   1.467       .  A
C1136     Br1141   1.968       .  S
C1137      C1138   1.444       .  A
C1138     Br1139   1.927       .  S
C1143      C1144   1.440       .  A
C1143      C1148   1.427       .  A
C1143     Br1150   1.921       .  S
C1144      C1145   1.450       .  A
C1145      C1146   1.397       .  A
C1145     Br1152   1.941       .  S
C1146      C1147   1.401       .  A
C1146     Br1151   1.947       .  S
C1147      C1148   1.412       .  A
C1148     Br1149   1.935       .  S
