geometry optimzed in LAMMPS
_audit_creation_date              2020-11-30 
_audit_creation_method            'lammps2cif' 
_symmetry_space_group_name_H-M    'P1' 
_symmetry_Int_Tables_number       1 
_symmetry_cell_setting            triclinic 
loop_ 
_symmetry_equiv_pos_as_xyz 
  x,y,z 
_cell_length_a                    37.9746637 
_cell_length_b                    37.97483754935353 
_cell_length_c                    25.59908763141571 
_cell_angle_alpha                 90.00056228950106 
_cell_angle_beta                  89.99978334261218 
_cell_angle_gamma                 90.00260844395605 
loop_ 
_atom_site_label 
_atom_site_type_symbol 
_atom_site_fract_x 
_atom_site_fract_y 
_atom_site_fract_z 
_atom_site_charge 
C1          C  0.50414745  0.33253278  0.04728074     0.03600
C2          C  0.00575300  0.29573780  0.04613769    -0.12600
C3          C  0.99997280  0.27653358  0.99977887     0.01100
C4          C  0.99413974  0.29568252  0.95338856    -0.11100
C5          C  0.49587592  0.33259816  0.95336792     0.03600
C6          C  0.49997427  0.35112298  0.00036130    -0.10500
H7          H  0.01113533  0.28254775  0.08266365     0.09100
H8          H  0.98867655  0.28245271  0.91691802     0.06700
H9          H  0.49993652  0.37965395  0.00041580     0.06500
C10         C  0.32574273  0.00293221  0.95263838     0.03600
C11         C  0.34438021  0.00666556  0.99960660    -0.12600
C12         C  0.32585133  0.01034399  0.04668084     0.01100
C13         C  0.28902668  0.01181796  0.04624330    -0.11100
C14         C  0.26978660  0.00663630  0.99978331     0.03600
C15         C  0.28893605  0.00135896  0.95326839    -0.10500
H16         H  0.37290979  0.00671233  0.99952233     0.09100
H17         H  0.27594324  0.01688590  0.08293700     0.06700
H18         H  0.27579108  0.99620981  0.91664830     0.06500
C19         C  0.42430142  0.25305218  0.54735352     0.03600
C20         C  0.40566351  0.25667817  0.50036744    -0.12600
C21         C  0.42420406  0.26024179  0.45328435     0.01100
C22         C  0.46101567  0.26179326  0.45373501    -0.11100
C23         C  0.48023395  0.25664069  0.50020407     0.03600
C24         C  0.46109723  0.25139642  0.54672309    -0.10500
H25         H  0.37713411  0.25672747  0.50044426     0.09100
H26         H  0.47408646  0.26687836  0.41705788     0.06700
H27         H  0.47422612  0.24623184  0.58333058     0.06500
C28         C  0.25412821  0.43092549  0.45335277     0.03600
C29         C  0.25551083  0.46777093  0.45381283    -0.12600
C30         C  0.24997759  0.48698635  0.50023004     0.01100
C31         C  0.24440344  0.46782656  0.54668277    -0.11100
C32         C  0.24586577  0.43099410  0.54726672     0.03600
C33         C  0.25003739  0.41240310  0.50034832    -0.10500
H34         H  0.26073690  0.48091430  0.41721811     0.09100
H35         H  0.23910533  0.48100659  0.58322698     0.06700
H36         H  0.25007901  0.38387213  0.50040504     0.06500
C37         C  0.25434469  0.08261274  0.54659283     0.03600
C38         C  0.25576033  0.04576279  0.54611499    -0.12600
C39         C  0.24997218  0.02655633  0.49976080     0.01100
C40         C  0.24413459  0.04570270  0.45336972    -0.11100
C41         C  0.24565189  0.08254008  0.45275542     0.03600
C42         C  0.25005225  0.10112608  0.49963129    -0.10500
H43         H  0.26114613  0.03257387  0.58264096     0.09100
H44         H  0.23866596  0.03247086  0.41690236     0.06700
H45         H  0.25010882  0.12965690  0.49956909     0.06500
C46         C  0.07585915  0.26034716  0.54666551     0.03600
C47         C  0.09437976  0.25667055  0.49958332    -0.12600
C48         C  0.07573413  0.25292321  0.45262489     0.01100
C49         C  0.03892927  0.25133849  0.45327179    -0.11100
C50         C  0.01978678  0.25662764  0.49978960     0.03600
C51         C  0.03903312  0.26181312  0.54624301    -0.10500
H52         H  0.12290931  0.25672611  0.49948587     0.09100
H53         H  0.02577965  0.24617531  0.41665963     0.06700
H54         H  0.02595363  0.26687797  0.58294072     0.06500
C55         C  0.36455036  0.03444661  0.82524054     0.03600
C56         C  0.36831862  0.00229393  0.79837194    -0.12600
C57         C  0.35921872  0.47033124  0.82320295     0.01100
C58         C  0.34700995  0.47072056  0.87504258    -0.11100
C59         C  0.34375628  0.00220400  0.90170815     0.03600
C60         C  0.35255943  0.03397944  0.87721409    -0.10500
H61         H  0.37731218  0.00237878  0.75821187     0.09100
H62         H  0.33923835  0.44644104  0.89407501     0.06700
H63         H  0.34876219  0.05844765  0.89827700     0.06500
O64         O  0.39979608  0.15821212  0.68518727    -0.74000
O65         O  0.38688954  0.06944012  0.75442885    -0.74000
O66         O  0.34946583  0.10817496  0.68445878    -0.74100
O67         O  0.43790146  0.11999523  0.75495669    -0.74100
O68         O  0.41027281  0.14730254  0.82016312    -0.74100
O69         O  0.32188411  0.13533056  0.74984923    -0.74000
O70         O  0.35970649  0.09704100  0.81977732    -0.74000
O71         O  0.37227525  0.18557424  0.75045349    -0.74100
Ni72       Ni  0.39454727  0.11293445  0.71751700     1.25400
Ni73       Ni  0.36511764  0.14222665  0.78742949     1.25400
C74         C  0.38759825  0.18645395  0.70588601     0.88200
C75         C  0.37090638  0.06859211  0.79855848     0.88100
C76         C  0.32115241  0.12025719  0.70504643     0.88100
C77         C  0.43871635  0.13586187  0.79915777     0.88300
O78         O  0.35031836  0.40816240  0.81542262    -0.74000
O79         O  0.36316869  0.31953380  0.74566716    -0.74000
O80         O  0.40068049  0.35812623  0.81569939    -0.74100
O81         O  0.31213351  0.37007339  0.74557103    -0.74100
O82         O  0.33969671  0.39739657  0.68031443    -0.74100
O83         O  0.42814663  0.38552036  0.75041818    -0.74000
O84         O  0.39036728  0.34724140  0.68043206    -0.74000
O85         O  0.37762672  0.43565004  0.75007648    -0.74100
Ni86       Ni  0.35554408  0.36294558  0.78282927     1.25400
Ni87       Ni  0.38487093  0.39237348  0.71294567     1.25400
C88         C  0.36239828  0.43645699  0.79472308     0.88200
C89         C  0.37918275  0.31875293  0.70155542     0.88100
C90         C  0.42895213  0.37031425  0.79511635     0.88100
C91         C  0.31127796  0.38595979  0.70139018     0.88300
C92         C  0.02698365  0.37175807  0.82567276     0.03600
C93         C  0.02650328  0.35963701  0.87754794    -0.12600
C94         C  0.99475048  0.35069958  0.90195350     0.01100
C95         C  0.46320210  0.35438028  0.87536275    -0.11100
C96         C  0.46280768  0.36705781  0.82371220     0.03600
C97         C  0.99482503  0.37588922  0.79893213    -0.10500
H98         H  0.05097822  0.35570161  0.89853861     0.09100
H99         H  0.43891093  0.34658214  0.89433390     0.06700
H100        H  0.99492856  0.38501077  0.75883640     0.06500
O101        O  0.11320740  0.44402178  0.75476909    -0.74000
O102        O  0.10025638  0.35548007  0.68477261    -0.74000
O103        O  0.06206685  0.39358758  0.75469109    -0.74100
O104        O  0.15068541  0.40545147  0.68477613    -0.74100
O105        O  0.17806666  0.37796876  0.75005474    -0.74100
O106        O  0.08953152  0.36616080  0.81994054    -0.74000
O107        O  0.12747164  0.32790597  0.75011848    -0.74000
O108        O  0.14029236  0.41621914  0.82001895    -0.74100
Ni109      Ni  0.10552241  0.40066243  0.71751248     1.25400
Ni110      Ni  0.13474387  0.37113152  0.78739559     1.25400
C111        C  0.12918481  0.44474120  0.79891148     0.88200
C112        C  0.11231087  0.32715505  0.70541373     0.88100
C113        C  0.06115165  0.37768739  0.79886053     0.88100
C114        C  0.17892726  0.39325152  0.70542037     0.88300
C115        C  0.03734777  0.14659261  0.82302137     0.03600
C116        C  0.03699357  0.15941279  0.87459342    -0.12600
C117        C  0.00526233  0.16280411  0.90194976     0.01100
C118        C  0.47327358  0.15398441  0.87794399    -0.11100
C119        C  0.47284918  0.14180279  0.82609438     0.03600
C120        C  0.00518767  0.13758141  0.79894635    -0.10500
H121        H  0.06127930  0.16737236  0.89343122     0.09100
H122        H  0.44877026  0.15809583  0.89878673     0.06700
H123        H  0.00508412  0.12844706  0.75885673     0.06500
O124        O  0.13686258  0.19411571  0.74509732    -0.74000
O125        O  0.14984469  0.10543350  0.81459560    -0.74000
O126        O  0.18796577  0.14365626  0.74476154    -0.74100
O127        O  0.09946393  0.15541038  0.81504753    -0.74100
O128        O  0.07196057  0.12815349  0.74967178    -0.74100
O129        O  0.16042866  0.11625196  0.67955757    -0.74000
O130        O  0.12241822  0.07798133  0.74932550    -0.74000
O131        O  0.10977767  0.16641716  0.67974606    -0.74100
Ni132      Ni  0.14456851  0.15067478  0.78211657     1.25400
Ni133      Ni  0.11523640  0.12127643  0.71220884     1.25400
C134        C  0.12091299  0.19490056  0.70093809     0.88200
C135        C  0.13767481  0.07715982  0.79394934     0.88100
C136        C  0.18883691  0.12777603  0.70057207     0.88100
C137        C  0.07117883  0.14330572  0.79441097     0.88300
C138        C  0.14079354  0.04330515  0.82248922     0.03600
C139        C  0.13169426  0.01117622  0.79837386    -0.12600
C140        C  0.13559319  0.47883350  0.82572513     0.01100
C141        C  0.14744219  0.47924123  0.87777262    -0.11100
C142        C  0.15625427  0.01125446  0.90171097     0.03600
C143        C  0.15320098  0.04294818  0.87423004    -0.10500
H144        H  0.12270214  0.01109477  0.75821322     0.09100
H145        H  0.15123731  0.45474447  0.89876274     0.06700
H146        H  0.16111395  0.06722569  0.89313759     0.06500
C147        C  0.10920481  0.29330294  0.67681745     0.03600
C148        C  0.11812834  0.26117441  0.70106732    -0.12600
C149        C  0.11456100  0.22901400  0.67417313     0.01100
C150        C  0.10280502  0.22943961  0.62208595    -0.11100
C151        C  0.09400497  0.26118653  0.59750344     0.03600
C152        C  0.09701764  0.29291886  0.62494913    -0.10500
H153        H  0.12688722  0.26109975  0.74134110     0.09100
H154        H  0.09912054  0.20495071  0.60102950     0.06700
H155        H  0.08917998  0.31719038  0.60596029     0.06500
C156        C  0.28733630  0.11704699  0.67633180     0.03600
C157        C  0.28699009  0.10431071  0.62470810    -0.12600
C158        C  0.25524774  0.10087850  0.59736397     0.01100
C159        C  0.22348223  0.10976608  0.62180258    -0.11100
C160        C  0.22299950  0.12187868  0.67368678     0.03600
C161        C  0.25516585  0.12602450  0.70040963    -0.10500
H162        H  0.31128357  0.09639008  0.60585816     0.09100
H163        H  0.19900217  0.10578626  0.60084241     0.06700
H164        H  0.25505920  0.13511833  0.74051858     0.06500
C165        C  0.27713943  0.39193375  0.67453032     0.03600
C166        C  0.27671715  0.40410738  0.62268166    -0.12600
C167        C  0.24497193  0.41284400  0.59810828     0.01100
C168        C  0.21320431  0.40934438  0.62533678    -0.11100
C169        C  0.21280076  0.39659071  0.67693866     0.03600
C170        C  0.24494524  0.38769316  0.70114912    -0.10500
H171        H  0.30121531  0.40816908  0.60180342     0.09100
H172        H  0.18892242  0.41718226  0.60637742     0.06700
H173        H  0.24500147  0.37855218  0.74123573     0.06500
C174        C  0.38558661  0.28462906  0.67481504     0.03600
C175        C  0.39764490  0.28418098  0.62286712    -0.12600
C176        C  0.40632252  0.25238985  0.59829870     0.01100
C177        C  0.40318563  0.22069482  0.62572442    -0.11100
C178        C  0.39077941  0.22033108  0.67745058     0.03600
C179        C  0.38173817  0.25245607  0.70161422    -0.10500
H180        H  0.40153502  0.30865783  0.60186485     0.09100
H181        H  0.41102903  0.19641049  0.60677028     0.06700
H182        H  0.37271087  0.25251429  0.74175728     0.06500
C183        C  0.17426825  0.01051462  0.95264044     0.03600
C184        C  0.21107577  0.01206757  0.95326913    -0.12600
C185        C  0.23022341  0.00677477  0.99978177     0.01100
C186        C  0.21098157  0.00159145  0.04623962    -0.11100
C187        C  0.17415781  0.00308741  0.04668005     0.03600
C188        C  0.15562991  0.00678363  0.99960833    -0.10500
H189        H  0.22422234  0.01721613  0.91665017     0.09100
H190        H  0.22406342  0.99651175  0.08293064     0.06700
H191        H  0.12710024  0.00675288  0.99952588     0.06500
C192        C  0.99567058  0.18091359  0.04660986     0.03600
C193        C  0.99425259  0.21776365  0.04613346    -0.12600
C194        C  0.00003563  0.23696998  0.99977697     0.01100
C195        C  0.00587252  0.21782279  0.95338523    -0.11100
C196        C  0.00436014  0.18098520  0.95277280     0.03600
C197        C  0.99996330  0.16240060  0.99964873    -0.10500
H198        H  0.98886776  0.23095176  0.08266055     0.09100
H199        H  0.01133766  0.23105349  0.91691642     0.06700
H200        H  0.99990895  0.13386974  0.99958683     0.06500
C201        C  0.03733404  0.36704152  0.17634499     0.03600
C202        C  0.03698467  0.35428991  0.12472974    -0.12600
C203        C  0.00524112  0.35085311  0.09739016     0.01100
C204        C  0.47329810  0.35941016  0.12270259    -0.11100
C205        C  0.47287476  0.37156363  0.17456133     0.03600
C206        C  0.00516443  0.37602538  0.20042146    -0.10500
H207        H  0.06127701  0.34636421  0.10588128     0.09100
H208        H  0.44880022  0.35535452  0.10182121     0.06700
H209        H  0.00505949  0.38512988  0.24052516     0.06500
O210        O  0.14980464  0.40821171  0.18520402    -0.74000
O211        O  0.13688321  0.31944089  0.25443034    -0.74000
O212        O  0.09946646  0.35817987  0.18446405    -0.74100
O213        O  0.18789998  0.36999009  0.25497424    -0.74100
O214        O  0.16026931  0.39729683  0.32017945    -0.74100
O215        O  0.07188440  0.38533637  0.24985333    -0.74000
O216        O  0.10969804  0.34704071  0.31977836    -0.74000
O217        O  0.12228319  0.43557556  0.25046831    -0.74100
Ni218      Ni  0.14454761  0.36293477  0.21752703     1.25400
Ni219      Ni  0.11511658  0.39222720  0.28743842     1.25400
C220        C  0.13761142  0.43645444  0.20590460     0.88200
C221        C  0.12089541  0.31859227  0.29855544     0.88100
C222        C  0.07115231  0.37026012  0.20505287     0.88100
C223        C  0.18871324  0.38585561  0.29917648     0.88300
O224        O  0.38683157  0.44394125  0.24569497    -0.74000
O225        O  0.39969346  0.35531099  0.31544535    -0.74000
O226        O  0.43787595  0.39341008  0.24560464    -0.74100
O227        O  0.34932620  0.40534362  0.31572111    -0.74100
O228        O  0.32186455  0.37794620  0.25043810    -0.74100
O229        O  0.41031962  0.36608468  0.18034290    -0.74000
O230        O  0.37239175  0.32782340  0.25009235    -0.74000
O231        O  0.35963965  0.41622796  0.18045839    -0.74100
Ni232      Ni  0.39446284  0.40052972  0.28285658     1.25400
Ni233      Ni  0.36514264  0.37109882  0.21296862     1.25400
C234        C  0.37081730  0.44471831  0.20158283     0.88200
C235        C  0.38761999  0.32701563  0.29473802     0.88100
C236        C  0.43873540  0.37752637  0.20142203     0.88100
C237        C  0.32105630  0.39315586  0.29513408     0.88300
C238        C  0.35917914  0.04329996  0.17683982     0.03600
C239        C  0.34699685  0.04291458  0.12496992    -0.12600
C240        C  0.34398623  0.01118193  0.09752648     0.01100
C241        C  0.35234860  0.47927772  0.12288972    -0.11100
C242        C  0.36440545  0.47883810  0.17483831     0.03600
C243        C  0.36809803  0.01117262  0.20109606    -0.10500
H244        H  0.33916453  0.06718596  0.10597582     0.09100
H245        H  0.34846295  0.45479784  0.10189270     0.06700
H246        H  0.37685485  0.01109932  0.24137093     0.06500
O247        O  0.35024958  0.10547964  0.18477417    -0.74000
O248        O  0.36322538  0.19402499  0.25474799    -0.74000
O249        O  0.40068992  0.15543753  0.18476440    -0.74100
O250        O  0.31207079  0.14360418  0.25467662    -0.74100
O251        O  0.33952940  0.11617899  0.31993366    -0.74100
O252        O  0.42806568  0.12795181  0.25004582    -0.74000
O253        O  0.39030570  0.16622048  0.32000060    -0.74000
O254        O  0.37745577  0.07790526  0.25012857    -0.74100
Ni255      Ni  0.35552775  0.15066417  0.21750063     1.25400
Ni256      Ni  0.38474236  0.12113227  0.28739002     1.25400
C257        C  0.36229422  0.07715371  0.20542518     0.88200
C258        C  0.37920466  0.19474331  0.29888918     0.88100
C259        C  0.42892831  0.14323127  0.20540914     0.88100
C260        C  0.31115220  0.12770640  0.29884709     0.88300
C261        C  0.13547729  0.03445180  0.17418687     0.03600
C262        C  0.13191182  0.00229739  0.20109684    -0.12600
C263        C  0.14080263  0.47033069  0.17747196     0.01100
C264        C  0.15320818  0.47069097  0.12574545    -0.11100
C265        C  0.15602425  0.00226325  0.09752728     0.03600
C266        C  0.14723123  0.03401590  0.12209909    -0.10500
H267        H  0.12315389  0.00237943  0.24137121     0.09100
H268        H  0.16104938  0.44640536  0.10679300     0.06700
H269        H  0.15091464  0.05850034  0.10103157     0.06500
C270        C  0.46279950  0.14656147  0.17692424     0.03600
C271        C  0.46320124  0.15930807  0.12531870    -0.12600
C272        C  0.99476680  0.16264229  0.09737522     0.01100
C273        C  0.02653038  0.15373674  0.12180144    -0.11100
C274        C  0.02701148  0.14159491  0.17366996     0.03600
C275        C  0.99484496  0.13743785  0.20038848    -0.10500
H276        H  0.43891921  0.16714527  0.10635914     0.09100
H277        H  0.05101044  0.15772322  0.10084380     0.06700
H278        H  0.99495036  0.12832197  0.24048620     0.06500
O279        O  0.11316109  0.06935699  0.24508761    -0.74000
O280        O  0.10015689  0.15803978  0.31455600    -0.74000
O281        O  0.06204656  0.11980599  0.24473521    -0.74100
O282        O  0.15055111  0.10807855  0.31502161    -0.74100
O283        O  0.17804963  0.13533522  0.24964139    -0.74100
O284        O  0.08958143  0.14720727  0.17952668    -0.74000
O285        O  0.12757775  0.18549436  0.24928292    -0.76400
O286        O  0.14024397  0.09705126  0.17973053    -0.74100
Ni287      Ni  0.10544500  0.11279933  0.28209104     1.25400
Ni288      Ni  0.13477291  0.14219630  0.21217790     1.25400
C289        C  0.12911529  0.06856882  0.20093306     0.88200
C290        C  0.11231864  0.18631433  0.29390526     0.88100
C291        C  0.06117403  0.13568641  0.20054643     0.88100
C292        C  0.17883406  0.12018650  0.29438214     0.88300
C293        C  0.21266571  0.11690657  0.32299113     0.03600
C294        C  0.21301948  0.10410128  0.37457059    -0.12600
C295        C  0.24475018  0.10071655  0.40192908     0.01100
C296        C  0.27650256  0.10965520  0.37752636    -0.11100
C297        C  0.27698361  0.12177791  0.32565280     0.03600
C298        C  0.24482624  0.12590806  0.29890887    -0.10500
H299        H  0.18873358  0.09614703  0.39341280     0.09100
H300        H  0.30097681  0.10571996  0.39851878     0.06700
H301        H  0.24493034  0.13502919  0.25881279     0.06500
C302        C  0.11453107  0.28444619  0.32522607     0.03600
C303        C  0.11829195  0.25229699  0.29834687    -0.12600
C304        C  0.10919062  0.22016529  0.32244739     0.01100
C305        C  0.09678094  0.22051244  0.37418623    -0.11100
C306        C  0.09373560  0.25219863  0.40168597     0.03600
C307        C  0.10254394  0.28397515  0.37720076    -0.10500
H308        H  0.12728664  0.25238486  0.25818732     0.09100
H309        H  0.08886639  0.19623179  0.39308286     0.06700
H310        H  0.09875562  0.30844134  0.39827254     0.06500
C311        C  0.39080664  0.29313776  0.32320366     0.03600
C312        C  0.40301128  0.29274120  0.37504506    -0.12600
C313        C  0.40611796  0.26100423  0.40241680     0.01100
C314        C  0.39746764  0.22923893  0.37775001    -0.11100
C315        C  0.38561851  0.22883388  0.32570245     0.03600
C316        C  0.38193863  0.26101615  0.29889394    -0.10500
H317        H  0.41077617  0.31701860  0.39408981     0.09100
H318        H  0.40126680  0.20474127  0.39873615     0.06700
H319        H  0.37311911  0.26097074  0.25864964     0.06500
C320        C  0.22284474  0.39179725  0.32611583     0.03600
C321        C  0.25504701  0.38753190  0.29952392    -0.12600
C322        C  0.28720013  0.39642060  0.32372350     0.01100
C323        C  0.28680357  0.40912731  0.37535856    -0.11100
C324        C  0.25502354  0.41268639  0.40256517     0.03600
C325        C  0.22326711  0.40398591  0.37796195    -0.10500
H326        H  0.25498830  0.37840391  0.25943146     0.09100
H327        H  0.31109312  0.41693880  0.39432203     0.06700
H328        H  0.19876309  0.40809939  0.39880205     0.06500
C329        C  0.50434125  0.83259051  0.04662743     0.03600
C330        C  0.00560649  0.79570754  0.04669284    -0.12600
C331        C  0.00002484  0.77654453  0.00024575     0.01100
C332        C  0.99448312  0.79575645  0.95382851    -0.11100
C333        C  0.49565078  0.83252715  0.95278881     0.03600
C334        C  0.50004912  0.85110836  0.99966936    -0.10500
H335        H  0.01090682  0.78252917  0.08323744     0.09100
H336        H  0.98924905  0.78260979  0.91723870     0.06700
H337        H  0.50010467  0.87963917  0.99961358     0.06500
C338        C  0.32581147  0.50320639  0.95329071     0.03600
C339        C  0.34434502  0.50677325  0.00037970    -0.12600
C340        C  0.32569999  0.51039303  0.04736056     0.01100
C341        C  0.28890491  0.51203628  0.04672050    -0.11100
C342        C  0.26977495  0.50678196  0.00019824     0.03600
C343        C  0.28899949  0.50164097  0.95373183    -0.10500
H344        H  0.37287437  0.50673306  0.00046468     0.09100
H345        H  0.27577152  0.51720150  0.08332446     0.06700
H346        H  0.27593304  0.49655665  0.91705085     0.06500
C347        C  0.42415041  0.75309539  0.54666878     0.03600
C348        C  0.40563018  0.75678089  0.49958823    -0.12600
C349        C  0.42427635  0.76051265  0.45262780     0.01100
C350        C  0.46108221  0.76207349  0.45327080    -0.11100
C351        C  0.48022329  0.75677997  0.49978863     0.03600
C352        C  0.46097552  0.75160538  0.54624312    -0.10500
H353        H  0.37710059  0.75674356  0.49949362     0.09100
H354        H  0.47423305  0.76722746  0.41665686     0.06700
H355        H  0.47405370  0.74653492  0.58294000     0.06500
C356        C  0.25435627  0.93100559  0.45276837     0.03600
C357        C  0.25586774  0.96784308  0.45337528    -0.12600
C358        C  0.25003260  0.98699298  0.49976480     0.01100
C359        C  0.24425083  0.96778989  0.54612515    -0.11100
C360        C  0.24567173  0.93093979  0.54660892     0.03600
C361        C  0.24996363  0.91242403  0.49964889    -0.10500
H362        H  0.26133135  0.98107189  0.41690413     0.09100
H363        H  0.23886587  0.98098125  0.58264986     0.06700
H364        H  0.24991135  0.88389319  0.49959119     0.06500
C365        C  0.25415058  0.58255793  0.54724958     0.03600
C366        C  0.25560891  0.54572564  0.54667160    -0.12600
C367        C  0.25002647  0.52656207  0.50022570     0.01100
C368        C  0.24448878  0.54577359  0.45380717    -0.11100
C369        C  0.24587761  0.58261888  0.45333915     0.03600
C370        C  0.24997616  0.60114615  0.50032979    -0.10500
H371        H  0.26090979  0.53254831  0.58321657     0.09100
H372        H  0.23925648  0.53262691  0.41721662     0.06700
H373        H  0.24993788  0.62967711  0.50038165     0.06500
C374        C  0.07570813  0.76039483  0.54734938     0.03600
C375        C  0.09434584  0.75677443  0.50036197    -0.12600
C376        C  0.07580519  0.75319677  0.45328133     0.01100
C377        C  0.03899446  0.75162532  0.45373594    -0.11100
C378        C  0.01977547  0.75677688  0.50020468     0.03600
C379        C  0.03891147  0.76203226  0.54672198    -0.10500
H380        H  0.12287528  0.75673996  0.50043576     0.09100
H381        H  0.02592439  0.74653115  0.41706092     0.06700
H382        H  0.02578187  0.76719444  0.58332986     0.06500
C383        C  0.36441516  0.53463465  0.82573066     0.03600
C384        C  0.36809406  0.50245589  0.79890959    -0.12600
C385        C  0.35922118  0.97016288  0.82247988     0.01100
C386        C  0.34681363  0.97051390  0.87422008    -0.11100
C387        C  0.34390565  0.50245267  0.90242836     0.03600
C388        C  0.35256439  0.53422174  0.87777776    -0.10500
H389        H  0.37691512  0.50250665  0.75866603     0.09100
H390        H  0.33890315  0.94623395  0.89312242     0.06700
H391        H  0.34876643  0.55871636  0.89877282     0.06500
O392        O  0.39975541  0.65798918  0.68479093    -0.74000
O393        O  0.38680149  0.56944901  0.75478060    -0.74000
O394        O  0.34932399  0.60802494  0.68479213    -0.74100
O395        O  0.43794447  0.61988074  0.75470378    -0.74100
O396        O  0.41048100  0.64730639  0.81995658    -0.74100
O397        O  0.32194628  0.63550976  0.75007348    -0.74000
O398        O  0.35971705  0.59725051  0.82003316    -0.74000
O399        O  0.37254445  0.68556575  0.75013974    -0.74100
Ni400      Ni  0.39448782  0.61280816  0.71752750     1.25400
Ni401      Ni  0.36526900  0.64233973  0.78741392     1.25400
C402        C  0.38770228  0.68631466  0.70543254     0.88200
C403        C  0.37082390  0.56872865  0.79892276     0.88100
C404        C  0.32108466  0.62023256  0.70543495     0.88100
C405        C  0.43886046  0.63578223  0.79887260     0.88300
O406        O  0.35016748  0.90803794  0.81457889    -0.74000
O407        O  0.36314536  0.81935619  0.74508351    -0.74000
O408        O  0.40054629  0.85806112  0.81503758    -0.74100
O409        O  0.31204569  0.86982164  0.74474136    -0.74100
O410        O  0.33958835  0.89722319  0.67954088    -0.74100
O411        O  0.42805250  0.88531495  0.74966234    -0.74000
O412        O  0.39023506  0.84705036  0.67973311    -0.74000
O413        O  0.37759828  0.93548937  0.74931245    -0.74100
Ni414      Ni  0.35544181  0.86279792  0.78210079     1.25400
Ni415      Ni  0.38477865  0.89219331  0.71219543     1.25400
C416        C  0.36233996  0.93631070  0.79393530     0.88200
C417        C  0.37909700  0.81856832  0.70092617     0.88100
C418        C  0.42883235  0.87016721  0.79440447     0.88100
C419        C  0.31117724  0.88570627  0.70055507     0.88300
C420        C  0.02716242  0.87167257  0.82608876     0.03600
C421        C  0.02673693  0.85951016  0.87794822    -0.12600
C422        C  0.99497795  0.85083025  0.90256255     0.01100
C423        C  0.46301639  0.85409164  0.87460521    -0.11100
C424        C  0.46266293  0.86688990  0.82302125     0.03600
C425        C  0.99496084  0.87592913  0.79949143    -0.10500
H426        H  0.05124032  0.85540123  0.89879144     0.09100
H427        H  0.43872997  0.84613983  0.89344829     0.06700
H428        H  0.99502177  0.88503667  0.75938894     0.06500
O429        O  0.11311775  0.94403017  0.75441966    -0.74000
O430        O  0.10021748  0.85525721  0.68516910    -0.74000
O431        O  0.06210955  0.89347084  0.75494443    -0.74100
O432        O  0.15054345  0.90530289  0.68444453    -0.74100
O433        O  0.17812861  0.87814724  0.74983033    -0.74100
O434        O  0.08973967  0.86616370  0.82014847    -0.74000
O435        O  0.12774094  0.82789691  0.75043330    -0.74000
O436        O  0.14030298  0.91642813  0.81976393    -0.74100
Ni437      Ni  0.10546283  0.90053584  0.71750330     1.25400
Ni438      Ni  0.13489522  0.87124396  0.78741207     1.25400
C439        C  0.12910174  0.94487723  0.79854866     0.88200
C440        C  0.11241637  0.82701573  0.70586734     0.88100
C441        C  0.06129548  0.87760565  0.79914629     0.88100
C442        C  0.17885928  0.89322701  0.70503212     0.88300
C443        C  0.03720253  0.64642369  0.82371265     0.03600
C444        C  0.03680668  0.65912288  0.87535192    -0.12600
C445        C  0.00502660  0.66267998  0.90255975     0.01100
C446        C  0.47350832  0.65386062  0.87754351    -0.11100
C447        C  0.47302848  0.64172019  0.82567818     0.03600
C448        C  0.00504863  0.63754003  0.79951083    -0.10500
H449        H  0.06109682  0.66692990  0.89431784     0.09100
H450        H  0.44903374  0.65779887  0.89853433     0.06700
H451        H  0.00498940  0.62841701  0.75941596     0.06500
O452        O  0.13684019  0.69393812  0.74567773    -0.74000
O453        O  0.14969288  0.60530919  0.81543733    -0.74000
O454        O  0.18787785  0.64340417  0.74558931    -0.74100
O455        O  0.09932949  0.65534585  0.81570783    -0.74100
O456        O  0.07186598  0.62794988  0.75042537    -0.74100
O457        O  0.16032043  0.61607758  0.68032968    -0.74000
O458        O  0.12238808  0.57782104  0.75008811    -0.74000
O459        O  0.10964700  0.66622647  0.68044098    -0.74100
Ni460      Ni  0.14446609  0.65052722  0.78284279     1.25400
Ni461      Ni  0.11514392  0.62109667  0.71295679     1.25400
C462        C  0.12082925  0.69471619  0.70156324     0.88200
C463        C  0.13761489  0.57701384  0.79473565     0.88100
C464        C  0.18873626  0.62752208  0.70140540     0.88100
C465        C  0.07105866  0.64315934  0.79512162     0.88300
C466        C  0.14079424  0.54313726  0.82321122     0.03600
C467        C  0.13191739  0.51101465  0.79891081    -0.12600
C468        C  0.13545806  0.97902108  0.82523604     0.01100
C469        C  0.14744695  0.97948281  0.87720990    -0.11100
C470        C  0.15610409  0.51100680  0.90243049     0.03600
C471        C  0.15300320  0.54274233  0.87505139    -0.10500
H472        H  0.12309727  0.51096711  0.75866688     0.09100
H473        H  0.15124048  0.95501241  0.89826800     0.06700
H474        H  0.16077706  0.56701955  0.89408863     0.06500
C475        C  0.10923364  0.79313602  0.67743667     0.03600
C476        C  0.11827434  0.76101346  0.70160777    -0.12600
C477        C  0.11442619  0.72883750  0.67481626     0.01100
C478        C  0.10236835  0.72927945  0.62286840    -0.11100
C479        C  0.09368882  0.76106705  0.59829303     0.03600
C480        C  0.09682565  0.79276603  0.62571108    -0.10500
H481        H  0.12730136  0.76095939  0.74175083     0.09100
H482        H  0.09847907  0.70480008  0.60187149     0.06700
H483        H  0.08898112  0.81704801  0.60675230     0.06500
C484        C  0.28721320  0.61691230  0.67694532     0.03600
C485        C  0.28681215  0.60419116  0.62532598    -0.12600
C486        C  0.25504545  0.60070576  0.59809160     0.01100
C487        C  0.22329914  0.60942551  0.62267487    -0.11100
C488        C  0.22287508  0.62156710  0.67453949     0.03600
C489        C  0.25506796  0.62579499  0.70116530    -0.10500
H490        H  0.31109469  0.59636218  0.60635975     0.09100
H491        H  0.19880136  0.60537096  0.60179276     0.06700
H492        H  0.25500992  0.63491112  0.74126466     0.06500
C493        C  0.27701475  0.89162163  0.67367563     0.03600
C494        C  0.27653373  0.90376658  0.62180757    -0.12600
C495        C  0.24476933  0.91267149  0.59737950     0.01100
C496        C  0.21302605  0.90922533  0.62471827    -0.11100
C497        C  0.21267731  0.89645552  0.67632414     0.03600
C498        C  0.24484704  0.88746200  0.70039126    -0.10500
H499        H  0.30101414  0.90775367  0.60085121     0.09100
H500        H  0.18873328  0.91715571  0.60587602     0.06700
H501        H  0.24495194  0.87834229  0.74048701     0.06500
C502        C  0.38544893  0.78445195  0.67416778     0.03600
C503        C  0.39720652  0.78401908  0.62208101    -0.12600
C504        C  0.40600574  0.75226797  0.59750770     0.01100
C505        C  0.40299263  0.72054033  0.62496239    -0.11100
C506        C  0.39080587  0.72016360  0.67683029     0.03600
C507        C  0.38188050  0.75229489  0.70107063    -0.10500
H508        H  0.40089235  0.80850511  0.60101826     0.09100
H509        H  0.41083007  0.69626615  0.60597985     0.06700
H510        H  0.37312035  0.75237436  0.74134385     0.06500
C511        C  0.17419874  0.51024259  0.95329253     0.03600
C512        C  0.21101146  0.51179062  0.95373228    -0.12600
C513        C  0.23023468  0.50663708  0.00019691     0.01100
C514        C  0.21110346  0.50138149  0.04671745    -0.11100
C515        C  0.17430925  0.50304247  0.04736056     0.03600
C516        C  0.15566473  0.50667758  0.00038179    -0.10500
H517        H  0.22407914  0.51687412  0.91705211     0.09100
H518        H  0.22423576  0.49620697  0.08331911     0.06700
H519        H  0.12713543  0.50673155  0.00046874     0.06500
C520        C  0.99586490  0.68097103  0.04726481     0.03600
C521        C  0.99440577  0.71780399  0.04669167    -0.12600
C522        C  0.99998056  0.73696864  0.00024393     0.01100
C523        C  0.00551699  0.71775792  0.95382302    -0.11100
C524        C  0.00413184  0.68091270  0.95335255     0.03600
C525        C  0.00003639  0.66238512  0.00034224    -0.10500
H526        H  0.98910929  0.73098066  0.08323920     0.09100
H527        H  0.01074656  0.73090515  0.91723242     0.06700
H528        H  0.00007522  0.63385411  0.00039146     0.06500
C529        C  0.03721395  0.86691167  0.17695942     0.03600
C530        C  0.03681219  0.85418114  0.12534460    -0.12600
C531        C  0.00504504  0.85069010  0.09811259     0.01100
C532        C  0.47348135  0.85974878  0.12183520    -0.11100
C533        C  0.47299974  0.87187526  0.17371183     0.03600
C534        C  0.00506888  0.87579574  0.20117865    -0.10500
H535        H  0.06109459  0.84635078  0.10637953     0.09100
H536        H  0.44900118  0.85576667  0.10087622     0.06700
H537        H  0.00501100  0.88491702  0.24127556     0.06500
O538        O  0.14976337  0.90798992  0.18481053    -0.74000
O539        O  0.13679592  0.81944970  0.25478419    -0.74000
O540        O  0.09932531  0.85803117  0.18480231    -0.74100
O541        O  0.18794418  0.86987699  0.25471921    -0.74100
O542        O  0.16048015  0.89729966  0.31997445    -0.74100
O543        O  0.07194807  0.88551862  0.25008176    -0.74000
O544        O  0.10970915  0.84724983  0.32003626    -0.74000
O545        O  0.12255597  0.93556831  0.25016122    -0.74100
Ni546      Ni  0.14448857  0.86280927  0.21753972     1.25400
Ni547      Ni  0.11527001  0.89234080  0.28742690     1.25400
C548        C  0.13771703  0.93631647  0.20545627     0.88200
C549        C  0.12081292  0.81872823  0.29892137     0.88100
C550        C  0.07108604  0.87023854  0.20544537     0.88100
C551        C  0.18885967  0.88577809  0.29888833     0.88300
O552        O  0.38685164  0.94411628  0.24511764    -0.74000
O553        O  0.39984813  0.85543259  0.31459940    -0.74000
O554        O  0.43796373  0.89366231  0.24477788    -0.74100
O555        O  0.34946054  0.90540423  0.31505991    -0.74100
O556        O  0.32195916  0.87814535  0.24968395    -0.74100
O557        O  0.41042853  0.86625986  0.17957028    -0.74000
O558        O  0.37242609  0.82798062  0.24932449    -0.74000
O559        O  0.35976773  0.91641650  0.17976624    -0.74100
Ni560      Ni  0.39456508  0.90067476  0.28213025     1.25400
Ni561      Ni  0.36523557  0.87127615  0.21221968     1.25400
C562        C  0.37089740  0.94490033  0.20096209     0.88200
C563        C  0.38768625  0.82715848  0.29394473     0.88100
C564        C  0.43883641  0.87778080  0.20058982     0.88100
C565        C  0.32117608  0.89330046  0.29442098     0.88300
C566        C  0.35920847  0.54313533  0.17745290     0.03600
C567        C  0.34680173  0.54276340  0.12572788    -0.12600
C568        C  0.34367044  0.51106430  0.09831097     0.01100
C569        C  0.35278148  0.97943580  0.12211366    -0.11100
C570        C  0.36453530  0.97901221  0.17420187     0.03600
C571        C  0.36824914  0.51101452  0.20162861    -0.10500
H572        H  0.33895826  0.56704458  0.10676582     0.09100
H573        H  0.34909963  0.95494649  0.10105718     0.06700
H574        H  0.37727672  0.51096243  0.24177152     0.06500
O575        O  0.35020840  0.60525879  0.18516658    -0.74000
O576        O  0.36313597  0.69403386  0.25439556    -0.74000
O577        O  0.40054762  0.65529060  0.18442629    -0.74100
O578        O  0.31211372  0.64349009  0.25493124    -0.74100
O579        O  0.33973936  0.61618182  0.32013879    -0.74100
O580        O  0.42812812  0.62813366  0.24981561    -0.74000
O581        O  0.39031640  0.66642918  0.31974222    -0.74000
O582        O  0.37772729  0.57789836  0.25043536    -0.74100
Ni583      Ni  0.35546749  0.65053916  0.21748801     1.25400
Ni584      Ni  0.38489481  0.62124579  0.28740094     1.25400
C585        C  0.36239978  0.57701661  0.20587251     0.88200
C586        C  0.37912125  0.69487894  0.29852375     0.88100
C587        C  0.42886082  0.64321021  0.20501548     0.88100
C588        C  0.31129755  0.62762825  0.29913519     0.88300
C589        C  0.13561088  0.53462752  0.17482741     0.03600
C590        C  0.13176463  0.50245688  0.20163298    -0.12600
C591        C  0.14083051  0.97016464  0.17685720     0.01100
C592        C  0.15301288  0.97053767  0.12498689    -0.11100
C593        C  0.15634083  0.50238362  0.09831334     0.03600
C594        C  0.14766667  0.53417630  0.12287883    -0.10500
H595        H  0.12273721  0.50251744  0.24177599     0.09100
H596        H  0.16084448  0.94626181  0.10600393     0.06700
H597        H  0.15155380  0.55865168  0.10187147     0.06500
C598        C  0.46267822  0.64643159  0.17630799     0.03600
C599        C  0.46302769  0.65919917  0.12470188    -0.12600
C600        C  0.99496993  0.66281474  0.09810006     0.01100
C601        C  0.02671445  0.65407543  0.12267086    -0.11100
C602        C  0.02713710  0.64190624  0.17452128     0.03600
C603        C  0.99494436  0.63766877  0.20114328    -0.10500
H604        H  0.43873584  0.66713193  0.10585906     0.09100
H605        H  0.05121223  0.65813536  0.10179090     0.06700
H606        H  0.99500128  0.62853307  0.24123272     0.06500
O607        O  0.11318298  0.56953286  0.24566800    -0.74000
O608        O  0.10030989  0.65816196  0.31540373    -0.74000
O609        O  0.06213458  0.62005759  0.24556362    -0.74100
O610        O  0.15068504  0.60814079  0.31568480    -0.74100
O611        O  0.17814368  0.63553698  0.25039814    -0.74100
O612        O  0.08969060  0.64738203  0.18030105    -0.74000
O613        O  0.12760991  0.68565256  0.25005240    -0.76400
O614        O  0.14037404  0.59724127  0.18042634    -0.74100
Ni615      Ni  0.10554720  0.61294500  0.28281959     1.25400
Ni616      Ni  0.13486567  0.64237488  0.21292930     1.25400
C617        C  0.12919816  0.56875209  0.20155768     0.88200
C618        C  0.11238234  0.68645796  0.29469982     0.88100
C619        C  0.06127542  0.63594021  0.20138030     0.88100
C620        C  0.17895327  0.62033261  0.29509686     0.88300
C621        C  0.21280908  0.61708048  0.32368874     0.03600
C622        C  0.21320410  0.60439803  0.37533577    -0.12600
C623        C  0.24498329  0.60084938  0.40254625     0.01100
C624        C  0.27674075  0.60953668  0.37793578    -0.11100
C625        C  0.27716489  0.62170063  0.32607779     0.03600
C626        C  0.24496318  0.62595648  0.29948087    -0.10500
H627        H  0.18891394  0.59659483  0.39430527     0.09100
H628        H  0.30124429  0.60542968  0.39877946     0.06700
H629        H  0.24502309  0.63506545  0.25937907     0.06500
C630        C  0.11439578  0.78463322  0.32571847     0.03600
C631        C  0.11807226  0.75245689  0.29889050    -0.12600
C632        C  0.10919741  0.72033102  0.32317948     0.01100
C633        C  0.09699055  0.72071664  0.37502010    -0.11100
C634        C  0.09388943  0.75244641  0.40241184     0.03600
C635        C  0.10254527  0.78421702  0.37776493    -0.10500
H636        H  0.12689409  0.75251029  0.25864725     0.09100
H637        H  0.08922118  0.69643580  0.39405070     0.06700
H638        H  0.09874919  0.80871015  0.39876478     0.06500
C639        C  0.39081659  0.79330261  0.32247199     0.03600
C640        C  0.40322386  0.79294417  0.37421161    -0.12600
C641        C  0.40627327  0.76125056  0.40169110     0.01100
C642        C  0.39746907  0.72947971  0.37718618    -0.11100
C643        C  0.38548368  0.72902026  0.32521033     0.03600
C644        C  0.38172143  0.76117543  0.29835029    -0.10500
H645        H  0.41113463  0.81722112  0.39312259     0.09100
H646        H  0.40125913  0.70500885  0.39824452     0.06700
H647        H  0.37272951  0.76109581  0.25818942     0.06500
C648        C  0.22302709  0.89172078  0.32569092     0.03600
C649        C  0.25518488  0.88758063  0.29895208    -0.12600
C650        C  0.28734431  0.89659474  0.32302598     0.01100
C651        C  0.28698925  0.90942588  0.37459215    -0.11100
C652        C  0.25525814  0.91282088  0.40194720     0.03600
C653        C  0.22350662  0.90386837  0.37755269    -0.10500
H654        H  0.25508207  0.87843982  0.25886560     0.09100
H655        H  0.31127465  0.91738902  0.39342766     0.06700
H656        H  0.19903204  0.90780972  0.39854210     0.06500
C657        C  0.00433649  0.33258774  0.04661888     0.03600
C658        C  0.50560552  0.29569978  0.04669902    -0.12600
C659        C  0.50002733  0.27653895  0.00024855     0.01100
C660        C  0.49448836  0.29575314  0.95383301    -0.11100
C661        C  0.99565276  0.33252021  0.95277897     0.03600
C662        C  0.00004709  0.35110343  0.99965853    -0.10500
H663        H  0.51090364  0.28251969  0.08324295     0.09100
H664        H  0.48925608  0.28260824  0.91724113     0.06700
H665        H  0.00010208  0.37963429  0.99960012     0.06500
C666        C  0.82581289  0.00320574  0.95329067     0.03600
C667        C  0.84434633  0.00677270  0.00037963    -0.12600
C668        C  0.82570164  0.01039274  0.04736061     0.01100
C669        C  0.78890608  0.01203493  0.04672100    -0.11100
C670        C  0.76977546  0.00678170  0.00019842     0.03600
C671        C  0.78900048  0.00164147  0.95373162    -0.10500
H672        H  0.87287575  0.00673252  0.00046448     0.09100
H673        H  0.77577283  0.01719874  0.08332544     0.06700
H674        H  0.77593405  0.99655862  0.91705019     0.06500
C675        C  0.92415156  0.25309541  0.54667231     0.03600
C676        C  0.90563101  0.25678175  0.49959179    -0.12600
C677        C  0.92427688  0.26051232  0.45263049     0.01100
C678        C  0.96108268  0.26207134  0.45327238    -0.11100
C679        C  0.98022410  0.25677732  0.49978948     0.03600
C680        C  0.96097673  0.25160352  0.54624492    -0.10500
H681        H  0.87710144  0.25674569  0.49949777     0.09100
H682        H  0.97423324  0.26722453  0.41665800     0.06700
H683        H  0.97405537  0.24653265  0.58294131     0.06500
C684        C  0.75435205  0.43100429  0.45276906     0.03600
C685        C  0.75586015  0.46784192  0.45337405    -0.12600
C686        C  0.75003250  0.48699254  0.49976531     0.01100
C687        C  0.74425858  0.46778866  0.54612742    -0.11100
C688        C  0.74567598  0.43093840  0.54660919     0.03600
C689        C  0.74996354  0.41242267  0.49964931    -0.10500
H690        H  0.76131809  0.48106917  0.41690027     0.09100
H691        H  0.73887945  0.48097841  0.58265493     0.06700
H692        H  0.74991112  0.38389182  0.49959155     0.06500
C693        C  0.75415587  0.08255870  0.54724870     0.03600
C694        C  0.75561267  0.04572602  0.54667044    -0.12600
C695        C  0.75002608  0.02656232  0.50022547     0.01100
C696        C  0.74448437  0.04577388  0.45380763    -0.11100
C697        C  0.74587178  0.08261959  0.45333921     0.03600
C698        C  0.74997577  0.10114671  0.50032937    -0.10500
H699        H  0.76091525  0.03254788  0.58321450     0.09100
H700        H  0.73925049  0.03262636  0.41721816     0.06700
H701        H  0.74993742  0.12967768  0.50038126     0.06500
C702        C  0.57570748  0.26039445  0.54734724     0.03600
C703        C  0.59434499  0.25677484  0.50035909    -0.12600
C704        C  0.57580412  0.25319651  0.45327836     0.01100
C705        C  0.53899334  0.25162361  0.45373436    -0.11100
C706        C  0.51977467  0.25677422  0.50020395     0.03600
C707        C  0.53891087  0.26202999  0.54672072    -0.10500
H708        H  0.62287436  0.25674138  0.50043247     0.09100
H709        H  0.52592289  0.24652934  0.41705966     0.06700
H710        H  0.52578142  0.26719133  0.58332898     0.06500
C711        C  0.86441805  0.03463590  0.82573225     0.03600
C712        C  0.86809903  0.00245749  0.79891065    -0.12600
C713        C  0.85921739  0.47016537  0.82247671     0.01100
C714        C  0.84680357  0.47051613  0.87421348    -0.11100
C715        C  0.84390822  0.00245267  0.90242865     0.03600
C716        C  0.85256595  0.03422216  0.87777864    -0.10500
H717        H  0.87692047  0.00250902  0.75866728     0.09100
H718        H  0.83888594  0.44623682  0.89311097     0.06700
H719        H  0.84876618  0.05871656  0.89877368     0.06500
O720        O  0.89975934  0.15799322  0.68480068    -0.74000
O721        O  0.88680437  0.06945183  0.75478434    -0.74000
O722        O  0.84932814  0.10802923  0.68479688    -0.74100
O723        O  0.93794657  0.11988310  0.75471108    -0.74100
O724        O  0.91048258  0.14730551  0.81996651    -0.74100
O725        O  0.82194932  0.13551471  0.75007663    -0.74000
O726        O  0.85971709  0.09725162  0.82003595    -0.74000
O727        O  0.87254990  0.18556958  0.75015109    -0.74100
Ni728      Ni  0.89449096  0.11281172  0.71753400     1.25400
Ni729      Ni  0.86527132  0.14234202  0.78742095     1.25400
C730        C  0.88770773  0.18631874  0.70544373     0.88200
C731        C  0.87082561  0.06873039  0.79892540     0.88100
C732        C  0.82108861  0.12023710  0.70543809     0.88100
C733        C  0.93886208  0.13578242  0.79888133     0.88300
O734        O  0.85016672  0.40804068  0.81457698    -0.74000
O735        O  0.86314429  0.31935934  0.74508367    -0.74000
O736        O  0.90054643  0.35806374  0.81503535    -0.74100
O737        O  0.81204499  0.36982389  0.74474232    -0.74100
O738        O  0.83958738  0.39722445  0.67954061    -0.74100
O739        O  0.92805215  0.38531781  0.74965988    -0.74000
O740        O  0.89023452  0.34705276  0.67973293    -0.74000
O741        O  0.87759699  0.43549224  0.74931014    -0.74100
Ni742      Ni  0.85544136  0.36280082  0.78210021     1.25400
Ni743      Ni  0.88477788  0.39219584  0.71219413     1.25400
C744        C  0.86233792  0.43631354  0.79393244     0.88200
C745        C  0.87909613  0.31857112  0.70092662     0.88100
C746        C  0.92883261  0.37016859  0.79440080     0.88100
C747        C  0.81117653  0.38570717  0.70055522     0.88300
C748        C  0.52716518  0.37167135  0.82609811     0.03600
C749        C  0.52674088  0.35950946  0.87795791    -0.12600
C750        C  0.49498220  0.35082916  0.90257336     0.01100
C751        C  0.96301861  0.35408435  0.87459531    -0.11100
C752        C  0.96266416  0.36688762  0.82301423     0.03600
C753        C  0.49496288  0.37592858  0.79950307    -0.10500
H754        H  0.55124477  0.35540041  0.89879975     0.09100
H755        H  0.93873259  0.34613066  0.89343778     0.06700
H756        H  0.49502303  0.38503609  0.75940066     0.06500
O757        O  0.61311496  0.44402945  0.75442279    -0.74000
O758        O  0.60021660  0.35525741  0.68516897    -0.74000
O759        O  0.56210964  0.39346872  0.75494996    -0.74100
O760        O  0.65054169  0.40530492  0.68444233    -0.74100
O761        O  0.67812855  0.37815081  0.74982785    -0.74100
O762        O  0.58974225  0.36616037  0.82015051    -0.74000
O763        O  0.62774422  0.32789754  0.75042964    -0.74000
O764        O  0.64030168  0.41642755  0.81976588    -0.74100
Ni765      Ni  0.60546140  0.40053572  0.71750481     1.25400
Ni766      Ni  0.63489648  0.37124406  0.78741115     1.25400
C767        C  0.62909843  0.44487634  0.79855220     0.88200
C768        C  0.61241780  0.32701616  0.70586503     0.88100
C769        C  0.56129730  0.37760324  0.79915183     0.88100
C770        C  0.67885832  0.39322973  0.70502913     0.88300
C771        C  0.53720496  0.14642302  0.82369988     0.03600
C772        C  0.53681040  0.15912145  0.87533970    -0.12600
C773        C  0.50503112  0.16267886  0.90254894     0.01100
C774        C  0.97351018  0.15385683  0.87755287    -0.11100
C775        C  0.97302986  0.14171882  0.82568667     0.03600
C776        C  0.50505066  0.13753966  0.79949909    -0.10500
H777        H  0.56110102  0.16692735  0.89430531     0.09100
H778        H  0.94903572  0.15779617  0.89854355     0.06700
H779        H  0.50499055  0.12841682  0.75940406     0.06500
O780        O  0.63684470  0.19393678  0.74567251    -0.74000
O781        O  0.64969239  0.10530700  0.81543256    -0.74000
O782        O  0.68788144  0.14340108  0.74558838    -0.74100
O783        O  0.59933114  0.15534437  0.81569743    -0.74100
O784        O  0.57186883  0.12794946  0.75041278    -0.74100
O785        O  0.66032582  0.11607488  0.68032664    -0.74000
O786        O  0.62238908  0.07781913  0.75008174    -0.74000
O787        O  0.60965379  0.16622568  0.68043322    -0.74100
Ni788      Ni  0.64446848  0.15052512  0.78283737     1.25400
Ni789      Ni  0.61514819  0.12109522  0.71294896     1.25400
C790        C  0.62083433  0.19471550  0.70155755     0.88200
C791        C  0.63761327  0.07701198  0.79473145     0.88100
C792        C  0.68874097  0.12751886  0.70140472     0.88100
C793        C  0.57106081  0.14315852  0.79510922     0.88300
C794        C  0.64078915  0.04313609  0.82321038     0.03600
C795        C  0.63191205  0.01101296  0.79891181    -0.12600
C796        C  0.63545388  0.47902003  0.82523972     0.01100
C797        C  0.64744277  0.47948259  0.87721376    -0.11100
C798        C  0.65610155  0.01100706  0.90243062     0.03600
C799        C  0.65299785  0.04274228  0.87505110    -0.10500
H800        H  0.62309150  0.01096454  0.75866803     0.09100
H801        H  0.65123214  0.45501269  0.89827484     0.06700
H802        H  0.66077084  0.06702000  0.89408756     0.06500
C803        C  0.60923507  0.29313630  0.67743399     0.03600
C804        C  0.61827762  0.26101365  0.70160398    -0.12600
C805        C  0.61442911  0.22883749  0.67481250     0.01100
C806        C  0.60236851  0.22927963  0.62286606    -0.11100
C807        C  0.59368824  0.26106712  0.59829107     0.03600
C808        C  0.59682513  0.29276616  0.62570927    -0.10500
H809        H  0.62730651  0.26095963  0.74174611     0.09100
H810        H  0.59847849  0.20480030  0.60186929     0.06700
H811        H  0.58897957  0.31704805  0.60675118     0.06500
C812        C  0.78721803  0.11691537  0.67694658     0.03600
C813        C  0.78681834  0.10419636  0.62532530    -0.12600
C814        C  0.75505152  0.10070705  0.59809130     0.01100
C815        C  0.72330495  0.10942389  0.62267559    -0.11100
C816        C  0.72288004  0.12156425  0.67454069     0.03600
C817        C  0.75507209  0.12579295  0.70116774    -0.10500
H818        H  0.81110171  0.09637128  0.60635813     0.09100
H819        H  0.69880737  0.10536813  0.60179340     0.06700
H820        H  0.75501299  0.13490661  0.74126838     0.06500
C821        C  0.77701446  0.39162039  0.67367471     0.03600
C822        C  0.77653479  0.40376279  0.62180598    -0.12600
C823        C  0.74477137  0.41266907  0.59737753     0.01100
C824        C  0.71302713  0.40922485  0.62471457    -0.11100
C825        C  0.71267683  0.39645665  0.67632098     0.03600
C826        C  0.74484615  0.38746257  0.70038956    -0.10500
H827        H  0.80101565  0.40774823  0.60084989     0.09100
H828        H  0.68873509  0.41715619  0.60587108     0.06700
H829        H  0.74495042  0.37834434  0.74048598     0.06500
C830        C  0.88544866  0.28445446  0.67417040     0.03600
C831        C  0.89720406  0.28402023  0.62208234    -0.12600
C832        C  0.90600748  0.25226890  0.59751271     0.01100
C833        C  0.90299893  0.22054268  0.62497240    -0.11100
C834        C  0.89081168  0.22016720  0.67684037     0.03600
C835        C  0.88188401  0.25229868  0.70107750    -0.10500
H836        H  0.90088592  0.30850554  0.60101645     0.09100
H837        H  0.91083907  0.19626838  0.60599274     0.06700
H838        H  0.87312464  0.25237931  0.74135111     0.06500
C839        C  0.67419737  0.01024352  0.95329244     0.03600
C840        C  0.71101053  0.01179056  0.95373219    -0.12600
C841        C  0.73023419  0.00663727  0.00019713     0.01100
C842        C  0.71110230  0.00138225  0.04671788    -0.11100
C843        C  0.67430761  0.00304225  0.04736051     0.03600
C844        C  0.65566345  0.00667802  0.00038162    -0.10500
H845        H  0.72407824  0.01687298  0.91705176     0.09100
H846        H  0.72423444  0.99620879  0.08331995     0.06700
H847        H  0.62713411  0.00673201  0.00046843     0.06500
C848        C  0.49586355  0.18096330  0.04725486     0.03600
C849        C  0.49440466  0.21779614  0.04668541    -0.12600
C850        C  0.49998312  0.23696303  0.00024117     0.01100
C851        C  0.50552258  0.21775457  0.95381862    -0.11100
C852        C  0.50413718  0.18090925  0.95334385     0.03600
C853        C  0.50003879  0.16237944  0.00033117    -0.10500
H854        H  0.48910585  0.23097110  0.08323358     0.09100
H855        H  0.51075398  0.23090364  0.91723015     0.06700
H856        H  0.50007769  0.13384843  0.00037765     0.06500
C857        C  0.53721288  0.36690911  0.17696654     0.03600
C858        C  0.53681037  0.35417333  0.12535475    -0.12600
C859        C  0.50504322  0.35068160  0.09812341     0.01100
C860        C  0.97347723  0.35974827  0.12182596    -0.11100
C861        C  0.97299679  0.37187417  0.17370308     0.03600
C862        C  0.50506795  0.37579502  0.20118546    -0.10500
H863        H  0.56109249  0.34634096  0.10639056     0.09100
H864        H  0.94899656  0.35576604  0.10086830     0.06700
H865        H  0.50501063  0.38491929  0.24128080     0.06500
O866        O  0.64976415  0.40799288  0.18481285    -0.74000
O867        O  0.63679712  0.31945301  0.25478488    -0.74000
O868        O  0.59932534  0.35803383  0.18480495    -0.74100
O869        O  0.68794487  0.36987950  0.25471903    -0.74100
O870        O  0.66048088  0.39730118  0.31997534    -0.74100
O871        O  0.57194832  0.38552146  0.25008443    -0.74000
O872        O  0.60970951  0.34725236  0.32003703    -0.74000
O873        O  0.62255702  0.43557133  0.25016374    -0.74100
Ni874      Ni  0.64448912  0.36281232  0.21754088     1.25400
Ni875      Ni  0.61527060  0.39234348  0.28742859     1.25400
C876        C  0.63771875  0.43631949  0.20545924     0.88200
C877        C  0.62081383  0.31873116  0.29892174     0.88100
C878        C  0.57108585  0.37023985  0.20544930     0.88100
C879        C  0.68886022  0.38577920  0.29888903     0.88300
O880        O  0.88685437  0.44411531  0.24511557    -0.74000
O881        O  0.89984852  0.35543250  0.31460054    -0.74000
O882        O  0.93796343  0.39365985  0.24477339    -0.74100
O883        O  0.84946209  0.40540603  0.31506318    -0.74100
O884        O  0.82195908  0.37814836  0.24968771    -0.74100
O885        O  0.91042572  0.36625670  0.17956884    -0.74000
O886        O  0.87242282  0.32798093  0.24932868    -0.74000
O887        O  0.85976864  0.41641577  0.17976556    -0.74100
Ni888      Ni  0.89456627  0.40067437  0.28212980     1.25400
Ni889      Ni  0.86523409  0.37127603  0.21222153     1.25400
C890        C  0.87090080  0.44489921  0.20095952     0.88200
C891        C  0.88768457  0.32715859  0.29394775     0.88100
C892        C  0.93883437  0.37777839  0.20058501     0.88100
C893        C  0.82117688  0.39330276  0.29442520     0.88300
C894        C  0.85921378  0.04313388  0.17745310     0.03600
C895        C  0.84680756  0.04276278  0.12572739    -0.12600
C896        C  0.84367355  0.01106380  0.09831048     0.01100
C897        C  0.85278726  0.47943489  0.12210978    -0.11100
C898        C  0.86454051  0.47901085  0.17419842     0.03600
C899        C  0.86825452  0.01101264  0.20162744    -0.10500
H900        H  0.83896494  0.06704437  0.10676577     0.09100
H901        H  0.84910956  0.45494596  0.10105087     0.06700
H902        H  0.87728215  0.01095982  0.24177033     0.06500
O903        O  0.85020894  0.10525642  0.18517082    -0.74000
O904        O  0.86313208  0.19403229  0.25440071    -0.74000
O905        O  0.90054611  0.15528888  0.18443607    -0.74100
O906        O  0.81211045  0.14348714  0.25493207    -0.74100
O907        O  0.83973410  0.11617845  0.32014116    -0.74100
O908        O  0.92812546  0.12813312  0.24982762    -0.74000
O909        O  0.89030978  0.16642788  0.31975000    -0.74000
O910        O  0.87772657  0.07789618  0.25044091    -0.74100
Ni911      Ni  0.85546538  0.15053693  0.21749313     1.25400
Ni912      Ni  0.88489074  0.12124394  0.28740823     1.25400
C913        C  0.86240157  0.07701453  0.20587599     0.88200
C914        C  0.87911663  0.19487786  0.29852952     0.88100
C915        C  0.92885884  0.14320929  0.20502726     0.88100
C916        C  0.81129304  0.12762478  0.29913541     0.88300
C917        C  0.63560704  0.03462877  0.17482533     0.03600
C918        C  0.63175929  0.00245858  0.20163174    -0.12600
C919        C  0.64083326  0.47016729  0.17686006     0.01100
C920        C  0.65302150  0.47054011  0.12499287    -0.11100
C921        C  0.65633769  0.00238366  0.09831275     0.03600
C922        C  0.64766377  0.03417668  0.12287728    -0.10500
H923        H  0.62273174  0.00251996  0.24177476     0.09100
H924        H  0.66086046  0.44626492  0.10601475     0.06700
H925        H  0.65155226  0.05865175  0.10186979     0.06500
C926        C  0.96267597  0.14643108  0.17632020     0.03600
C927        C  0.96302425  0.15919831  0.12471372    -0.12600
C928        C  0.49496794  0.16280606  0.09808901     0.01100
C929        C  0.52671277  0.15407075  0.12266142    -0.11100
C930        C  0.52713574  0.14190456  0.17451290     0.03600
C931        C  0.49494359  0.13766824  0.20113649    -0.10500
H932        H  0.93873196  0.16713003  0.10587123     0.09100
H933        H  0.55121049  0.15813164  0.10178164     0.06700
H934        H  0.49500120  0.12853588  0.24122750     0.06500
O935        O  0.61317977  0.06953584  0.24566391    -0.74000
O936        O  0.60030614  0.15816604  0.31539390    -0.74000
O937        O  0.56213245  0.12006004  0.24555651    -0.74100
O938        O  0.65068101  0.10814505  0.31567914    -0.74100
O939        O  0.67814067  0.13554191  0.25039396    -0.74100
O940        O  0.58968886  0.14738135  0.18029127    -0.74000
O941        O  0.62760453  0.18565654  0.25004099    -0.76400
O942        O  0.64037351  0.09724240  0.18042296    -0.74100
Ni943      Ni  0.60554408  0.11294866  0.28281280     1.25400
Ni944      Ni  0.63486323  0.14237730  0.21292185     1.25400
C945        C  0.62919584  0.06875392  0.20155449     0.88200
C946        C  0.61237702  0.18646212  0.29468867     0.88100
C947        C  0.56127374  0.13594043  0.20137175     0.88100
C948        C  0.67894943  0.12033699  0.29509258     0.88300
C949        C  0.71280437  0.11708318  0.32368613     0.03600
C950        C  0.71319786  0.10440293  0.37533511    -0.12600
C951        C  0.74497700  0.10085049  0.40254557     0.01100
C952        C  0.77673482  0.10953497  0.37793439    -0.11100
C953        C  0.77716002  0.12169752  0.32607581     0.03600
C954        C  0.74495924  0.12595395  0.29947723    -0.10500
H955        H  0.68890681  0.09660367  0.39430539     0.09100
H956        H  0.80123807  0.10542696  0.39877846     0.06700
H957        H  0.74502034  0.13506025  0.25937403     0.06500
C958        C  0.61439627  0.28463581  0.32571678     0.03600
C959        C  0.61806898  0.25246078  0.29888440    -0.12600
C960        C  0.60919172  0.22033463  0.32316979     0.01100
C961        C  0.59698432  0.22071884  0.37501050    -0.11100
C962        C  0.59388792  0.25244714  0.40240754     0.03600
C963        C  0.60254810  0.28421807  0.37776461    -0.10500
H964        H  0.62689012  0.25251543  0.25864078     0.09100
H965        H  0.58921211  0.19643781  0.39403798     0.06700
H966        H  0.59875610  0.30871046  0.39876784     0.06500
C967        C  0.89081499  0.29330257  0.32247530     0.03600
C968        C  0.90322383  0.29294405  0.37421419    -0.12600
C969        C  0.90627373  0.26125041  0.40169366     0.01100
C970        C  0.89746955  0.22947948  0.37718881    -0.11100
C971        C  0.88548125  0.22901986  0.32521440     0.03600
C972        C  0.88171831  0.26117523  0.29835454    -0.10500
H973        H  0.91113516  0.31722102  0.39312473     0.09100
H974        H  0.90126087  0.20500869  0.39824672     0.06700
H975        H  0.87272448  0.26109564  0.25819463     0.06500
C976        C  0.72302718  0.39171966  0.32569287     0.03600
C977        C  0.75518559  0.38758091  0.29895505    -0.12600
C978        C  0.78734464  0.39659554  0.32303029     0.01100
C979        C  0.78698807  0.40942524  0.37459694    -0.11100
C980        C  0.75525598  0.41281868  0.40195007     0.03600
C981        C  0.72350536  0.40386511  0.37755513    -0.10500
H982        H  0.75508342  0.37844133  0.25886791     0.09100
H983        H  0.81127276  0.41738914  0.39343368     0.06700
H984        H  0.69903034  0.40780526  0.39854403     0.06500
C985        C  0.00414859  0.83254037  0.04727093     0.03600
C986        C  0.50575743  0.79574047  0.04614210    -0.12600
C987        C  0.49997416  0.77653846  0.99978173     0.01100
C988        C  0.49413755  0.79568962  0.95339485    -0.11100
C989        C  0.99587093  0.83260154  0.95335918     0.03600
C990        C  0.99997187  0.85112855  0.00035031    -0.10500
H991        H  0.51114152  0.78254861  0.08266610     0.09100
H992        H  0.48867202  0.78246156  0.91692371     0.06700
H993        H  0.99993396  0.87965948  0.00040210     0.06500
C994        C  0.82574101  0.50293220  0.95263807     0.03600
C995        C  0.84437893  0.50666510  0.99960629    -0.12600
C996        C  0.82585035  0.51034290  0.04668122     0.01100
C997        C  0.78902599  0.51181827  0.04624383    -0.11100
C998        C  0.76978613  0.50663582  0.99978425     0.03600
C999        C  0.78893474  0.50135710  0.95326936    -0.10500
H1000       H  0.87290850  0.50671203  0.99952145     0.09100
H1001       H  0.77594251  0.51688747  0.08293714     0.06700
H1002       H  0.77578929  0.49620626  0.91665013     0.06500
C1003       C  0.92430204  0.75305274  0.54735135     0.03600
C1004       C  0.90566431  0.75667760  0.50036450    -0.12600
C1005       C  0.92420509  0.76024178  0.45328130     0.01100
C1006       C  0.96101675  0.76179485  0.45373339    -0.11100
C1007       C  0.98023473  0.75664334  0.50020326     0.03600
C1008       C  0.96109781  0.75139881  0.54672178    -0.10500
H1009       H  0.87713493  0.75672575  0.50044086     0.09100
H1010       H  0.97408794  0.76688005  0.41705651     0.06700
H1011       H  0.97422654  0.74623512  0.58332965     0.06500
C1012       C  0.75413390  0.93092475  0.45335339     0.03600
C1013       C  0.75551476  0.96777058  0.45381364    -0.12600
C1014       C  0.74997729  0.98698614  0.50022990     0.01100
C1015       C  0.74439917  0.96782632  0.54668192    -0.11100
C1016       C  0.74586027  0.93099348  0.54726642     0.03600
C1017       C  0.75003769  0.91240256  0.50034859    -0.10500
H1018       H  0.76074238  0.98091477  0.41721981     0.09100
H1019       H  0.73909937  0.98100726  0.58322503     0.06700
H1020       H  0.75007952  0.88387160  0.50040545     0.06500
C1021       C  0.75434024  0.58261417  0.54659240     0.03600
C1022       C  0.75575211  0.54576406  0.54611685    -0.12600
C1023       C  0.74997171  0.52655669  0.49976108     0.01100
C1024       C  0.74414154  0.54570366  0.45336816    -0.11100
C1025       C  0.74565592  0.58254118  0.45275537     0.03600
C1026       C  0.75005247  0.60112735  0.49963082    -0.10500
H1027       H  0.76113195  0.53257682  0.58264572     0.09100
H1028       H  0.73867824  0.53247326  0.41689828     0.06700
H1029       H  0.75010952  0.62965821  0.49956830     0.06500
C1030       C  0.57585799  0.76034729  0.54666906     0.03600
C1031       C  0.59437888  0.75666966  0.49958688    -0.12600
C1032       C  0.57573353  0.75292328  0.45262764     0.01100
C1033       C  0.53892872  0.75134026  0.45327356    -0.11100
C1034       C  0.51978596  0.75663021  0.49979063     0.03600
C1035       C  0.53903190  0.76181518  0.54624487    -0.10500
H1036       H  0.62290845  0.75672400  0.49948994     0.09100
H1037       H  0.52577931  0.74617767  0.41666110     0.06700
H1038       H  0.52595192  0.76688074  0.58294205     0.06500
C1039       C  0.86455448  0.53444784  0.82524393     0.03600
C1040       C  0.86832128  0.50229589  0.79837342    -0.12600
C1041       C  0.85922374  0.97033236  0.82320257     0.01100
C1042       C  0.84701549  0.97072072  0.87504284    -0.11100
C1043       C  0.84375333  0.50220473  0.90170681     0.03600
C1044       C  0.85256348  0.53398003  0.87721762    -0.10500
H1045       H  0.87731815  0.50238104  0.75821496     0.09100
H1046       H  0.83924504  0.94644076  0.89407482     0.06700
H1047       H  0.84877033  0.55844780  0.89828325     0.06500
O1048       O  0.89979701  0.65821202  0.68518672    -0.74000
O1049       O  0.88689227  0.56944091  0.75443150    -0.74000
O1050       O  0.84946769  0.60817293  0.68445587    -0.74100
O1051       O  0.93790141  0.61999736  0.75496183    -0.74100
O1052       O  0.91027019  0.64730570  0.82016493    -0.74100
O1053       O  0.82188429  0.63532718  0.74984590    -0.74000
O1054       O  0.85970762  0.59704168  0.81977865    -0.74000
O1055       O  0.87227222  0.68557367  0.75044964    -0.74100
Ni1056     Ni  0.89454876  0.61293461  0.71751798     1.25400
Ni1057     Ni  0.86511641  0.64222660  0.78742807     1.25400
C1058       C  0.88759701  0.68645363  0.70588349     0.88200
C1059       C  0.87090956  0.56859311  0.79856149     0.88100
C1060       C  0.82115347  0.62025457  0.70504262     0.88100
C1061       C  0.93871452  0.63586411  0.79916307     0.88300
O1062       O  0.85031881  0.90816442  0.81541849    -0.74000
O1063       O  0.86316412  0.81953505  0.74566210    -0.74000
O1064       O  0.90067880  0.85812758  0.81568947    -0.74100
O1065       O  0.81212979  0.87007625  0.74557056    -0.74100
O1066       O  0.83969112  0.89739945  0.68031220    -0.74100
O1067       O  0.92814366  0.88552046  0.75040583    -0.74000
O1068       O  0.89036018  0.84724229  0.68042442    -0.74000
O1069       O  0.87762572  0.93565182  0.75007084    -0.74100
Ni1070     Ni  0.85554161  0.86294751  0.78282429     1.25400
Ni1071     Ni  0.88486650  0.89237489  0.71293836     1.25400
C1072       C  0.86239989  0.93645871  0.79471954     0.88200
C1073       C  0.87917751  0.81875368  0.70154980     0.88100
C1074       C  0.92894994  0.87031486  0.79510426     0.88100
C1075       C  0.81127308  0.88596299  0.70139015     0.88300
C1076       C  0.52698206  0.87175976  0.82568154     0.03600
C1077       C  0.52650126  0.85964134  0.87755766    -0.12600
C1078       C  0.49474808  0.85070748  0.90196439     0.01100
C1079       C  0.96319861  0.85438144  0.87535055    -0.11100
C1080       C  0.96280532  0.86705835  0.82369954     0.03600
C1081       C  0.49482407  0.87588975  0.79893923    -0.10500
H1082       H  0.55097608  0.85570509  0.89854828     0.09100
H1083       H  0.93890705  0.84658421  0.89432138     0.06700
H1084       H  0.49492832  0.88500845  0.75884202     0.06500
O1085       O  0.61320429  0.94401887  0.75477329    -0.74000
O1086       O  0.60025216  0.85547602  0.68478297    -0.74000
O1087       O  0.56206454  0.89358532  0.75469878    -0.74100
O1088       O  0.65068102  0.90544714  0.68478154    -0.74100
O1089       O  0.67806340  0.87796378  0.75005856    -0.74100
O1090       O  0.58952967  0.86616173  0.81995093    -0.74000
O1091       O  0.62746594  0.82790208  0.75013037    -0.74000
O1092       O  0.64029199  0.91621805  0.82002241    -0.74100
Ni1093     Ni  0.60551906  0.90065883  0.71751954     1.25400
Ni1094     Ni  0.63474131  0.87112918  0.78740325     1.25400
C1095       C  0.62918276  0.94473942  0.79891467     0.88200
C1096       C  0.61230511  0.82715095  0.70542545     0.88100
C1097       C  0.56114982  0.87768737  0.79886968     0.88100
C1098       C  0.67892309  0.89324699  0.70542420     0.88300
C1099       C  0.53734668  0.64659516  0.82301434     0.03600
C1100       C  0.53699144  0.65942012  0.87458364    -0.12600
C1101       C  0.50526003  0.66281175  0.90193909     0.01100
C1102       C  0.97326947  0.65398489  0.87795364    -0.11100
C1103       C  0.97284635  0.64180376  0.82610371     0.03600
C1104       C  0.50518687  0.63758205  0.79893931    -0.10500
H1105       H  0.56127675  0.66738168  0.89342088     0.09100
H1106       H  0.94876555  0.65809636  0.89879500     0.06700
H1107       H  0.50508404  0.62844505  0.75885101     0.06500
O1108       O  0.63686402  0.69411258  0.74509693    -0.74000
O1109       O  0.64984557  0.60543086  0.81459333    -0.74000
O1110       O  0.68796655  0.64365387  0.74476204    -0.74100
O1111       O  0.59946400  0.65540802  0.81504510    -0.74100
O1112       O  0.57196101  0.62815102  0.74966919    -0.74100
O1113       O  0.66042955  0.61625068  0.67955689    -0.74000
O1114       O  0.62241950  0.57797858  0.74932298    -0.74000
O1115       O  0.60977843  0.66641485  0.67974540    -0.74100
Ni1116     Ni  0.64456915  0.65067195  0.78211561     1.25400
Ni1117     Ni  0.61523720  0.62127404  0.71220728     1.25400
C1118       C  0.62091425  0.69489782  0.70093801     0.88200
C1119       C  0.63767697  0.57715709  0.79394620     0.88100
C1120       C  0.68883760  0.62777504  0.70057170     0.88100
C1121       C  0.57117872  0.64330469  0.79440718     0.88300
C1122       C  0.64079753  0.54330281  0.82248580     0.03600
C1123       C  0.63169167  0.51117439  0.79837537    -0.12600
C1124       C  0.63558983  0.97883232  0.82572698     0.01100
C1125       C  0.64744024  0.97924102  0.87777375    -0.11100
C1126       C  0.65625719  0.51125417  0.90170970     0.03600
C1127       C  0.65321133  0.54294627  0.87422315    -0.10500
H1128       H  0.62269623  0.51109255  0.75821632     0.09100
H1129       H  0.65123703  0.95474460  0.89876398     0.06700
H1130       H  0.66113168  0.56722314  0.89312556     0.06500
C1131       C  0.60919865  0.79329934  0.67682789     0.03600
C1132       C  0.61812485  0.76117063  0.70107415    -0.12600
C1133       C  0.61456165  0.72901155  0.67417532     0.01100
C1134       C  0.60280812  0.72943869  0.62208678    -0.11100
C1135       C  0.59400322  0.76118577  0.59750844     0.03600
C1136       C  0.59701067  0.79291661  0.62495963    -0.10500
H1137       H  0.62688299  0.76109471  0.74134831     0.09100
H1138       H  0.59912814  0.70495048  0.60102674     0.06700
H1139       H  0.58916978  0.81718818  0.60597410     0.06500
C1140       C  0.78733682  0.61704596  0.67632779     0.03600
C1141       C  0.78698895  0.60431143  0.62470343    -0.12600
C1142       C  0.75524555  0.60088108  0.59736119     0.01100
C1143       C  0.72348102  0.60976991  0.62180031    -0.11100
C1144       C  0.72299974  0.62187988  0.67368521     0.03600
C1145       C  0.75516676  0.62602393  0.70040713    -0.10500
H1146       H  0.81128166  0.59639000  0.60585204     0.09100
H1147       H  0.69900044  0.60579173  0.60084054     0.06700
H1148       H  0.75506078  0.63511629  0.74051679     0.06500
C1149       C  0.77713428  0.89193664  0.67453219     0.03600
C1150       C  0.77671117  0.90410909  0.62268305    -0.12600
C1151       C  0.74496568  0.91284305  0.59810878     0.01100
C1152       C  0.71319799  0.90933963  0.62533700    -0.11100
C1153       C  0.71279573  0.89658784  0.67694068     0.03600
C1154       C  0.74494092  0.88769530  0.70115229    -0.10500
H1155       H  0.80120910  0.90817183  0.60180466     0.09100
H1156       H  0.68891525  0.91717377  0.60637676     0.06700
H1157       H  0.74499821  0.87855679  0.74124010     0.06500
C1158       C  0.88558369  0.78462920  0.67481130     0.03600
C1159       C  0.89764484  0.78418106  0.62286483    -0.12600
C1160       C  0.90632315  0.75239002  0.59829674     0.01100
C1161       C  0.90318636  0.72069494  0.62572263    -0.11100
C1162       C  0.89077822  0.72033097  0.67744789     0.03600
C1163       C  0.88173499  0.75245603  0.70161045    -0.10500
H1164       H  0.90153576  0.80865787  0.60186287     0.09100
H1165       H  0.91103083  0.69641073  0.60676910     0.06700
H1166       H  0.87270573  0.75251419  0.74175251     0.06500
C1167       C  0.67426988  0.51051518  0.95264024     0.03600
C1168       C  0.71107697  0.51207002  0.95327024    -0.12600
C1169       C  0.73022378  0.50677524  0.99978272     0.01100
C1170       C  0.71098215  0.50159059  0.04623997    -0.11100
C1171       C  0.67415871  0.50308822  0.04668042     0.03600
C1172       C  0.65563108  0.50678435  0.99960809    -0.10500
H1173       H  0.72422400  0.51722060  0.91665222     0.09100
H1174       H  0.72406404  0.49650911  0.08293053     0.06700
H1175       H  0.62710145  0.50675354  0.99952514     0.06500
C1176       C  0.49567541  0.68091623  0.04660136     0.03600
C1177       C  0.49425742  0.71776620  0.04612919    -0.12600
C1178       C  0.50003707  0.73697481  0.99977419     0.01100
C1179       C  0.50587013  0.71782977  0.95337895    -0.11100
C1180       C  0.50435812  0.68099200  0.95276306     0.03600
C1181       C  0.49996533  0.66240540  0.99963798    -0.10500
H1182       H  0.48887457  0.73095246  0.08265840     0.09100
H1183       H  0.51133259  0.73106217  0.91691059     0.06700
H1184       H  0.49991146  0.63387451  0.99957348     0.06500
C1185       C  0.53733654  0.86704181  0.17635720     0.03600
C1186       C  0.53698835  0.85429077  0.12474148    -0.12600
C1187       C  0.50524548  0.85085382  0.09740058     0.01100
C1188       C  0.97329969  0.85941487  0.12269344    -0.11100
C1189       C  0.97287618  0.87156551  0.17455325     0.03600
C1190       C  0.50516661  0.87602574  0.20043258    -0.10500
H1191       H  0.56128107  0.84636590  0.10589340     0.09100
H1192       H  0.94880183  0.85535833  0.10181238     0.06700
H1193       H  0.50506087  0.88513021  0.24053628     0.06500
O1194       O  0.64980424  0.90821387  0.18520860    -0.74000
O1195       O  0.63688744  0.81944234  0.25443602    -0.74000
O1196       O  0.59946822  0.85818128  0.18447410    -0.74100
O1197       O  0.68790331  0.86999310  0.25497556    -0.74100
O1198       O  0.66027449  0.89730023  0.32018222    -0.74100
O1199       O  0.57188710  0.88533643  0.24986561    -0.74000
O1200       O  0.60970483  0.84704180  0.31978663    -0.74000
O1201       O  0.62228387  0.93557755  0.25047403    -0.74100
Ni1202     Ni  0.64454991  0.86293685  0.21753258     1.25400
Ni1203     Ni  0.61512063  0.89222887  0.28744607     1.25400
C1204       C  0.63760976  0.93645632  0.20590835     0.88200
C1205       C  0.62090045  0.81859320  0.29856181     0.88100
C1206       C  0.57115447  0.87026063  0.20506485     0.88100
C1207       C  0.68871773  0.88585917  0.29917718     0.88300
O1208       O  0.88683474  0.94393826  0.24569137    -0.74000
O1209       O  0.89969728  0.85530693  0.31543624    -0.74000
O1210       O  0.93787820  0.89340759  0.24559829    -0.74100
O1211       O  0.84933023  0.90533937  0.31571614    -0.74100
O1212       O  0.82186768  0.87794096  0.25043483    -0.74100
O1213       O  0.91032143  0.86608561  0.18033362    -0.74000
O1214       O  0.87239753  0.82781944  0.25008133    -0.74000
O1215       O  0.85964002  0.91622667  0.18045571    -0.74100
Ni1216     Ni  0.89446600  0.90052609  0.28285048     1.25400
Ni1217     Ni  0.86514519  0.87109636  0.21296185     1.25400
C1218       C  0.87081952  0.94471634  0.20158015     0.88200
C1219       C  0.88762558  0.82701146  0.29472730     0.88100
C1220       C  0.93873716  0.87752631  0.20141402     0.88100
C1221       C  0.82106019  0.89315126  0.29513064     0.88300
C1222       C  0.85917615  0.54329737  0.17684237     0.03600
C1223       C  0.84698827  0.54291207  0.12497548    -0.12600
C1224       C  0.84398495  0.51118073  0.09752712     0.01100
C1225       C  0.85235134  0.97927694  0.12288849    -0.11100
C1226       C  0.86440921  0.97883661  0.17483651     0.03600
C1227       C  0.86810151  0.51117062  0.20109435    -0.10500
H1228       H  0.83914875  0.56718273  0.10598591     0.09100
H1229       H  0.84846423  0.95479730  0.10189156     0.06700
H1230       H  0.87686110  0.51109709  0.24136790     0.06500
O1231       O  0.85024854  0.60547677  0.18477587    -0.74000
O1232       O  0.86322428  0.69402162  0.25474831    -0.74000
O1233       O  0.90068976  0.65543476  0.18476649    -0.74100
O1234       O  0.81207000  0.64360181  0.25467589    -0.74100
O1235       O  0.83952844  0.61617743  0.31993394    -0.74100
O1236       O  0.92806519  0.62794894  0.25004813    -0.74000
O1237       O  0.89030512  0.66621777  0.32000119    -0.74000
O1238       O  0.87745446  0.57790234  0.25013052    -0.74100
Ni1239     Ni  0.85552710  0.65066115  0.21750128     1.25400
Ni1240     Ni  0.88474154  0.62112955  0.28739127     1.25400
C1241       C  0.86229223  0.57715079  0.20542761     0.88200
C1242       C  0.87920374  0.69474025  0.29888926     0.88100
C1243       C  0.92892834  0.64322995  0.20541269     0.88100
C1244       C  0.81115146  0.62770529  0.29884711     0.88300
C1245       C  0.63547172  0.53445321  0.17418308     0.03600
C1246       C  0.63190796  0.50229952  0.20109506    -0.12600
C1247       C  0.64079753  0.97033190  0.17747237     0.01100
C1248       C  0.65320263  0.97069123  0.12574520    -0.11100
C1249       C  0.65602553  0.50226427  0.09752801     0.03600
C1250       C  0.64722524  0.53401668  0.12209500    -0.10500
H1251       H  0.62314713  0.50238194  0.24136805     0.09100
H1252       H  0.66104317  0.94640519  0.10679343     0.06700
H1253       H  0.65090449  0.55850073  0.10102481     0.06500
C1254       C  0.96280053  0.64656414  0.17693135     0.03600
C1255       C  0.96320317  0.65931624  0.12532895    -0.12600
C1256       C  0.49477096  0.66264270  0.09736464     0.01100
C1257       C  0.52653423  0.65373666  0.12179192    -0.11100
C1258       C  0.52701413  0.64159565  0.17366096     0.03600
C1259       C  0.49484686  0.63743822  0.20037732    -0.10500
H1260       H  0.93892152  0.66715558  0.10637026     0.09100
H1261       H  0.55101479  0.65772310  0.10083555     0.06700
H1262       H  0.49495145  0.62832255  0.24047508     0.06500
O1263       O  0.61315812  0.56935806  0.24508512    -0.74000
O1264       O  0.60015606  0.65803988  0.31455655    -0.74000
O1265       O  0.56204659  0.61980833  0.24473041    -0.74100
O1266       O  0.65054933  0.60807678  0.31502418    -0.74100
O1267       O  0.67804946  0.63533225  0.24964442    -0.74100
O1268       O  0.58958388  0.64721038  0.17952487    -0.74000
O1269       O  0.62758062  0.68549409  0.24928659    -0.76400
O1270       O  0.64024258  0.59705208  0.17972918    -0.74100
Ni1271     Ni  0.60544353  0.61279976  0.28209010     1.25400
Ni1272     Ni  0.63477403  0.64219648  0.21217918     1.25400
C1273       C  0.62911148  0.56857003  0.20092995     0.88200
C1274       C  0.61231984  0.68631421  0.29390775     0.88100
C1275       C  0.56117577  0.63568864  0.20054131     0.88100
C1276       C  0.67883305  0.62018417  0.29438555     0.88300
C1277       C  0.71266516  0.61690558  0.32299461     0.03600
C1278       C  0.71302049  0.60410156  0.37457441    -0.12600
C1279       C  0.74475213  0.60071845  0.40193108     0.01100
C1280       C  0.77650357  0.60965838  0.37752796    -0.11100
C1281       C  0.77698329  0.62177891  0.32565394     0.03600
C1282       C  0.74482530  0.62590766  0.29891098    -0.10500
H1283       H  0.68873523  0.59614647  0.39341790     0.09100
H1284       H  0.80097831  0.60572458  0.39852000     0.06700
H1285       H  0.74492876  0.63502770  0.25881439     0.06500
C1286       C  0.61453412  0.78444639  0.32523066     0.03600
C1287       C  0.61829525  0.75229709  0.29835127    -0.12600
C1288       C  0.60919186  0.72016526  0.32245035     0.01100
C1289       C  0.59678014  0.72051240  0.37418827    -0.11100
C1290       C  0.59373507  0.75219849  0.40168854     0.03600
C1291       C  0.60254429  0.78397505  0.37720404    -0.10500
H1292       H  0.62729184  0.75238500  0.25819262     0.09100
H1293       H  0.58886429  0.69623184  0.39308392     0.06700
H1294       H  0.59875526  0.80844108  0.39827580     0.06500
C1295       C  0.89081256  0.79313403  0.32319407     0.03600
C1296       C  0.90301775  0.79273875  0.37503544    -0.12600
C1297       C  0.90611954  0.76100323  0.40241240     0.01100
C1298       C  0.89746498  0.72923766  0.37774939    -0.11100
C1299       C  0.88561818  0.72883114  0.32570048     0.03600
C1300       C  0.88194207  0.76101219  0.29888772    -0.10500
H1301       H  0.91078565  0.81701631  0.39407709     0.09100
H1302       H  0.90126009  0.70474068  0.39873886     0.06700
H1303       H  0.87312321  0.76096562  0.25864303     0.06500
C1304       C  0.72284959  0.89180045  0.32611440     0.03600
C1305       C  0.75505097  0.88753419  0.29952108    -0.12600
C1306       C  0.78720489  0.89641765  0.32372175     0.01100
C1307       C  0.78680977  0.90912227  0.37535867    -0.11100
C1308       C  0.75502978  0.91268523  0.40256513     0.03600
C1309       C  0.72327295  0.90398784  0.37796102    -0.10500
H1310       H  0.75499113  0.87840875  0.25942727     0.09100
H1311       H  0.81110027  0.91692987  0.39432304     0.06700
H1312       H  0.69876924  0.90810257  0.39880127     0.06500
loop_ 
_geom_bond_atom_site_label_1 
_geom_bond_atom_site_label_2 
_geom_bond_distance 
_geom_bond_site_symmetry_2 
_ccdc_geom_bond_type 
C1            C6   1.402       .  A
C1          C658   1.400       .  A
C1          C859   1.473       .  S
C2            C3   1.410   1_454  A
C2          C657   1.400       .  A
C2            H7   1.080       .  S
C3            C4   1.410       .  A
C3          C194   1.502   1_655  S
C4          C661   1.400       .  A
C4            H8   1.080       .  S
C5            C6   1.402   1_556  A
C5          C660   1.400       .  A
C5          C750   1.474       .  S
C6            H9   1.083       .  S
C10          C11   1.402       .  A
C10          C15   1.399       .  A
C10          C59   1.473       .  S
C11          C12   1.402   1_556  A
C11          H16   1.083       .  S
C12          C13   1.400       .  A
C12         C240   1.473       .  S
C13          C14   1.410   1_554  A
C13          H17   1.080       .  S
C14          C15   1.410       .  A
C14         C185   1.502       .  S
C15          H18   1.080   1_545  S
C19          C20   1.402       .  A
C19          C24   1.399       .  A
C19         C176   1.472       .  S
C20          C21   1.402       .  A
C20          H25   1.083       .  S
C21          C22   1.399       .  A
C21         C313   1.472       .  S
C22          C23   1.409       .  A
C22          H26   1.079       .  S
C23          C24   1.409       .  A
C23         C706   1.502       .  S
C24          H27   1.079       .  S
C28          C29   1.400       .  A
C28          C33   1.402       .  A
C28         C324   1.473       .  S
C29          C30   1.410       .  A
C29          H34   1.080       .  S
C30          C31   1.410       .  A
C30         C367   1.503       .  S
C31          C32   1.400       .  A
C31          H35   1.080       .  S
C32          C33   1.402       .  A
C32         C167   1.473       .  S
C33          H36   1.083       .  S
C37          C38   1.400       .  A
C37          C42   1.402       .  A
C37         C158   1.474       .  S
C38          C39   1.410       .  A
C38          H43   1.080       .  S
C39          C40   1.410       .  A
C39         C358   1.502   1_545  S
C40          C41   1.400       .  A
C40          H44   1.080       .  S
C41          C42   1.402       .  A
C41         C295   1.473       .  S
C42          H45   1.083       .  S
C46          C47   1.402       .  A
C46          C51   1.400       .  A
C46         C151   1.473       .  S
C47          C48   1.402       .  A
C47          H52   1.083       .  S
C48          C49   1.399       .  A
C48         C306   1.473       .  S
C49          C50   1.410       .  A
C49          H53   1.080       .  S
C50          C51   1.410       .  A
C50         C679   1.502   1_455  S
C51          H54   1.080       .  S
C55          C56   1.409       .  A
C55          C60   1.406       .  A
C55          C75   1.485       .  S
C56         C385   1.410   1_545  A
C56          H61   1.083       .  S
C57          C58   1.406       .  A
C57         C384   1.410       .  A
C57          C88   1.484       .  S
C58         C387   1.399       .  A
C58          H62   1.084       .  S
C59          C60   1.400       .  A
C59         C386   1.399   1_545  A
C60          H63   1.084       .  S
O64         Ni72   1.919       .  S
O64          C74   1.283       .  A
O65         Ni72   1.925       .  S
O65          C75   1.283       .  A
O66         Ni72   1.918       .  S
O66          C76   1.282       .  A
O67         Ni72   1.924       .  S
O67          C77   1.282       .  A
O68         Ni73   1.918       .  S
O68          C77   1.282       .  A
O69         Ni73   1.921       .  S
O69          C76   1.282       .  A
O70         Ni73   1.916       .  S
O70          C75   1.282       .  A
O71         Ni73   1.918       .  S
O71          C74   1.281       .  A
Ni72        Ni73   2.385       .  S
C74         C178   1.483       .  S
C76         C156   1.485       .  S
C77         C119   1.485       .  S
O78         Ni86   1.919       .  S
O78          C88   1.283       .  A
O79         Ni86   1.925       .  S
O79          C89   1.283       .  A
O80         Ni86   1.918       .  S
O80          C90   1.282       .  A
O81         Ni86   1.924       .  S
O81          C91   1.282       .  A
O82         Ni87   1.918       .  S
O82          C91   1.282       .  A
O83         Ni87   1.921       .  S
O83          C90   1.282       .  A
O84         Ni87   1.917       .  S
O84          C89   1.282       .  A
O85         Ni87   1.918       .  S
O85          C88   1.281       .  A
Ni86        Ni87   2.385       .  S
C89         C174   1.486       .  S
C90          C96   1.485       .  S
C91         C165   1.485       .  S
C92          C93   1.406       .  A
C92          C97   1.409   1_455  A
C92         C113   1.485       .  S
C93          C94   1.400   1_455  A
C93          H98   1.084       .  S
C94         C751   1.400       .  A
C94         C661   1.473       .  S
C95          C96   1.407       .  A
C95         C750   1.400       .  A
C95          H99   1.084       .  S
C96         C753   1.410       .  A
C97         C752   1.410       .  A
C97         H100   1.083       .  S
O101       Ni109   1.925       .  S
O101        C111   1.283       .  A
O102       Ni109   1.920       .  S
O102        C112   1.283       .  A
O103       Ni109   1.924       .  S
O103        C113   1.282       .  A
O104       Ni109   1.917       .  S
O104        C114   1.282       .  A
O105       Ni110   1.920       .  S
O105        C114   1.282       .  A
O106       Ni110   1.918       .  S
O106        C113   1.282       .  A
O107       Ni110   1.919       .  S
O107        C112   1.281       .  A
O108       Ni110   1.917       .  S
O108        C111   1.282       .  A
Ni109      Ni110   2.385       .  S
C111        C140   1.485       .  S
C112        C147   1.484       .  S
C114        C169   1.484       .  S
C115        C116   1.407       .  A
C115        C120   1.410       .  A
C115        C137   1.484       .  S
C116        C117   1.400       .  A
C116        H121   1.084       .  S
C117        C774   1.400   1_455  A
C117        C196   1.473       .  S
C118        C119   1.406       .  A
C118        C773   1.400       .  A
C118        H122   1.084       .  S
C119        C776   1.409       .  A
C120        C775   1.409   1_455  A
C120        H123   1.083       .  S
O124       Ni132   1.925       .  S
O124        C134   1.283       .  A
O125       Ni132   1.919       .  S
O125        C135   1.283       .  A
O126       Ni132   1.924       .  S
O126        C136   1.282       .  A
O127       Ni132   1.917       .  S
O127        C137   1.282       .  A
O128       Ni133   1.921       .  S
O128        C137   1.282       .  A
O129       Ni133   1.918       .  S
O129        C136   1.282       .  A
O130       Ni133   1.918       .  S
O130        C135   1.281       .  A
O131       Ni133   1.916       .  S
O131        C134   1.282       .  A
Ni132      Ni133   2.385       .  S
C134        C149   1.485       .  S
C135        C138   1.483       .  S
C136        C160   1.486       .  S
C138        C139   1.410       .  A
C138        C143   1.406       .  A
C139        C468   1.409   1_545  A
C139        H144   1.083       .  S
C140        C141   1.406       .  A
C140        C467   1.409       .  A
C141        C470   1.401       .  A
C141        H145   1.084       .  S
C142        C143   1.399       .  A
C142        C469   1.400   1_545  A
C142        C183   1.473       .  S
C143        H146   1.084       .  S
C147        C148   1.410       .  A
C147        C152   1.406       .  A
C148        C149   1.408       .  A
C148        H153   1.083       .  S
C149        C150   1.406       .  A
C150        C151   1.400       .  A
C150        H154   1.084       .  S
C151        C152   1.400       .  A
C152        H155   1.084       .  S
C156        C157   1.407       .  A
C156        C161   1.410       .  A
C157        C158   1.400       .  A
C157        H162   1.084       .  S
C158        C159   1.400       .  A
C159        C160   1.406       .  A
C159        H163   1.084       .  S
C160        C161   1.409       .  A
C161        H164   1.083       .  S
C165        C166   1.406       .  A
C165        C170   1.409       .  A
C166        C167   1.400       .  A
C166        H171   1.084       .  S
C167        C168   1.400       .  A
C168        C169   1.407       .  A
C168        H172   1.084       .  S
C169        C170   1.410       .  A
C170        H173   1.083       .  S
C174        C175   1.407       .  A
C174        C179   1.409       .  A
C175        C176   1.401       .  A
C175        H180   1.084       .  S
C176        C177   1.398       .  A
C177        C178   1.406       .  A
C177        H181   1.084       .  S
C178        C179   1.410       .  A
C179        H182   1.083       .  S
C183        C184   1.399       .  A
C183        C188   1.402       .  A
C184        C185   1.410       .  A
C184        H189   1.080       .  S
C185        C186   1.410   1_556  A
C186        C187   1.400       .  A
C186        H190   1.080   1_545  S
C187        C188   1.402   1_554  A
C187        C265   1.473       .  S
C188        H191   1.083       .  S
C192        C193   1.400       .  A
C192        C197   1.402   1_554  A
C192        C272   1.474       .  S
C193        C194   1.410   1_654  A
C193        H198   1.080       .  S
C194        C195   1.410       .  A
C195        C196   1.400       .  A
C195        H199   1.080       .  S
C196        C197   1.402   1_455  A
C197        H200   1.083       .  S
C201        C202   1.407       .  A
C201        C206   1.410       .  A
C201        C222   1.485       .  S
C202        C203   1.400       .  A
C202        H207   1.084       .  S
C203        C860   1.400   1_455  A
C203        C657   1.474       .  S
C204        C205   1.406       .  A
C204        C859   1.400       .  A
C204        H208   1.084       .  S
C205        C862   1.409       .  A
C205        C236   1.485       .  S
C206        C861   1.409   1_455  A
C206        H209   1.083       .  S
O210       Ni218   1.919       .  S
O210        C220   1.283       .  A
O211       Ni218   1.925       .  S
O211        C221   1.283       .  A
O212       Ni218   1.918       .  S
O212        C222   1.282       .  A
O213       Ni218   1.924       .  S
O213        C223   1.282       .  A
O214       Ni219   1.918       .  S
O214        C223   1.282       .  A
O215       Ni219   1.921       .  S
O215        C222   1.282       .  A
O216       Ni219   1.916       .  S
O216        C221   1.282       .  A
O217       Ni219   1.918       .  S
O217        C220   1.281       .  A
Ni218      Ni219   2.385       .  S
C220        C263   1.483       .  S
C221        C302   1.485       .  S
C223        C320   1.485       .  S
O224       Ni232   1.925       .  S
O224        C234   1.283       .  A
O225       Ni232   1.919       .  S
O225        C235   1.283       .  A
O226       Ni232   1.924       .  S
O226        C236   1.282       .  A
O227       Ni232   1.918       .  S
O227        C237   1.282       .  A
O228       Ni233   1.921       .  S
O228        C237   1.282       .  A
O229       Ni233   1.918       .  S
O229        C236   1.282       .  A
O230       Ni233   1.918       .  S
O230        C235   1.281       .  A
O231       Ni233   1.917       .  S
O231        C234   1.282       .  A
Ni232      Ni233   2.385       .  S
C234        C242   1.486       .  S
C235        C311   1.483       .  S
C237        C322   1.485       .  S
C238        C239   1.406       .  A
C238        C243   1.410       .  A
C238        C257   1.484       .  S
C239        C240   1.400       .  A
C239        H244   1.084       .  S
C240        C569   1.400   1_545  A
C241        C242   1.407       .  A
C241        C568   1.401       .  A
C241        H245   1.084       .  S
C242        C571   1.409       .  A
C243        C570   1.408   1_545  A
C243        H246   1.083       .  S
O247       Ni255   1.920       .  S
O247        C257   1.283       .  A
O248       Ni255   1.925       .  S
O248        C258   1.283       .  A
O249       Ni255   1.917       .  S
O249        C259   1.282       .  A
O250       Ni255   1.924       .  S
O250        C260   1.282       .  A
O251       Ni256   1.918       .  S
O251        C260   1.282       .  A
O252       Ni256   1.920       .  S
O252        C259   1.282       .  A
O253       Ni256   1.917       .  S
O253        C258   1.282       .  A
O254       Ni256   1.919       .  S
O254        C257   1.281       .  A
Ni255      Ni256   2.385       .  S
C258        C315   1.485       .  S
C259        C270   1.484       .  S
C260        C297   1.485       .  S
C261        C262   1.408       .  A
C261        C266   1.406       .  A
C261        C289   1.485       .  S
C262        C591   1.410   1_545  A
C262        H267   1.083       .  S
C263        C264   1.406       .  A
C263        C590   1.410       .  A
C264        C593   1.398       .  A
C264        H268   1.084       .  S
C265        C266   1.400       .  A
C265        C592   1.400   1_545  A
C266        H269   1.084       .  S
C270        C271   1.407       .  A
C270        C931   1.410       .  A
C271        C928   1.400       .  A
C271        H276   1.084       .  S
C272        C273   1.400   1_655  A
C272        C927   1.400       .  A
C273        C274   1.406       .  A
C273        H277   1.084       .  S
C274        C275   1.409   1_455  A
C274        C291   1.486       .  S
C275        C926   1.410       .  A
C275        H278   1.083       .  S
O279       Ni287   1.925       .  S
O279        C289   1.283       .  A
O280       Ni287   1.919       .  S
O280        C290   1.283       .  A
O281       Ni287   1.924       .  S
O281        C291   1.282       .  A
O282       Ni287   1.918       .  S
O282        C292   1.282       .  A
O283       Ni288   1.921       .  S
O283        C292   1.282       .  A
O284       Ni288   1.918       .  S
O284        C291   1.282       .  A
O285       Ni288   1.918       .  S
O285        C290   1.281       .  A
O286       Ni288   1.916       .  S
O286        C289   1.282       .  A
Ni287      Ni288   2.385       .  S
C290        C304   1.483       .  S
C292        C293   1.484       .  S
C293        C294   1.407       .  A
C293        C298   1.410       .  A
C294        C295   1.400       .  A
C294        H299   1.084       .  S
C295        C296   1.400       .  A
C296        C297   1.406       .  A
C296        H300   1.084       .  S
C297        C298   1.409       .  A
C298        H301   1.083       .  S
C302        C303   1.409       .  A
C302        C307   1.406       .  A
C303        C304   1.410       .  A
C303        H308   1.083       .  S
C304        C305   1.406       .  A
C305        C306   1.399       .  A
C305        H309   1.084       .  S
C306        C307   1.400       .  A
C307        H310   1.084       .  S
C311        C312   1.406       .  A
C311        C316   1.410       .  A
C312        C313   1.399       .  A
C312        H317   1.084       .  S
C313        C314   1.401       .  A
C314        C315   1.406       .  A
C314        H318   1.084       .  S
C315        C316   1.409       .  A
C316        H319   1.083       .  S
C320        C321   1.409       .  A
C320        C325   1.406       .  A
C321        C322   1.410       .  A
C321        H326   1.083       .  S
C322        C323   1.407       .  A
C323        C324   1.400       .  A
C323        H327   1.084       .  S
C324        C325   1.400       .  A
C325        H328   1.084       .  S
C329        C986   1.400       .  A
C329        C334   1.402   1_554  A
C329       C1187   1.474       .  S
C330        C985   1.400       .  A
C330        C331   1.410       .  A
C330        H335   1.080       .  S
C331        C332   1.410   1_454  A
C331        C522   1.503   1_455  S
C332        C989   1.400       .  A
C332        H336   1.080       .  S
C333        C988   1.400       .  A
C333        C334   1.402       .  A
C333       C1078   1.473       .  S
C334        H337   1.083       .  S
C338        C339   1.402   1_556  A
C338        C343   1.399       .  A
C338        C387   1.472       .  S
C339        C340   1.402       .  A
C339        H344   1.083       .  S
C340        C341   1.399       .  A
C340        C568   1.472       .  S
C341        C342   1.409       .  A
C341        H345   1.079       .  S
C342        C343   1.409   1_554  A
C342        C513   1.502       .  S
C343        H346   1.079       .  S
C347        C348   1.402       .  A
C347        C352   1.400       .  A
C347        C504   1.473       .  S
C348        C349   1.402       .  A
C348        H353   1.083       .  S
C349        C350   1.399       .  A
C349        C641   1.473       .  S
C350        C351   1.410       .  A
C350        H354   1.080       .  S
C351        C352   1.410       .  A
C351       C1034   1.502       .  S
C352        H355   1.080       .  S
C356        C357   1.400       .  A
C356        C361   1.402       .  A
C356        C652   1.473       .  S
C357        C358   1.410       .  A
C357        H362   1.080       .  S
C358        C359   1.410       .  A
C359        C360   1.400       .  A
C359        H363   1.080       .  S
C360        C361   1.402       .  A
C360        C495   1.474       .  S
C361        H364   1.083       .  S
C365        C366   1.400       .  A
C365        C370   1.402       .  A
C365        C486   1.473       .  S
C366        C367   1.410       .  A
C366        H371   1.080       .  S
C367        C368   1.410       .  A
C368        C369   1.400       .  A
C368        H372   1.080       .  S
C369        C370   1.402       .  A
C369        C623   1.473       .  S
C370        H373   1.083       .  S
C374        C375   1.402       .  A
C374        C379   1.399       .  A
C374        C479   1.472       .  S
C375        C376   1.402       .  A
C375        H380   1.083       .  S
C376        C377   1.399       .  A
C376        C634   1.472       .  S
C377        C378   1.409       .  A
C377        H381   1.079       .  S
C378        C379   1.409       .  A
C378       C1007   1.502   1_455  S
C379        H382   1.079       .  S
C383        C384   1.409       .  A
C383        C388   1.406       .  A
C383        C403   1.485       .  S
C384        H389   1.083       .  S
C385        C386   1.406       .  A
C385        C416   1.483       .  S
C386        H390   1.084       .  S
C387        C388   1.401       .  A
C388        H391   1.084       .  S
O392       Ni400   1.920       .  S
O392        C402   1.283       .  A
O393       Ni400   1.925       .  S
O393        C403   1.283       .  A
O394       Ni400   1.917       .  S
O394        C404   1.282       .  A
O395       Ni400   1.924       .  S
O395        C405   1.282       .  A
O396       Ni401   1.918       .  S
O396        C405   1.282       .  A
O397       Ni401   1.920       .  S
O397        C404   1.282       .  A
O398       Ni401   1.917       .  S
O398        C403   1.282       .  A
O399       Ni401   1.919       .  S
O399        C402   1.281       .  A
Ni400      Ni401   2.385       .  S
C402        C506   1.484       .  S
C404        C484   1.484       .  S
C405        C447   1.485       .  S
O406       Ni414   1.919       .  S
O406        C416   1.283       .  A
O407       Ni414   1.925       .  S
O407        C417   1.283       .  A
O408       Ni414   1.918       .  S
O408        C418   1.282       .  A
O409       Ni414   1.924       .  S
O409        C419   1.282       .  A
O410       Ni415   1.918       .  S
O410        C419   1.282       .  A
O411       Ni415   1.921       .  S
O411        C418   1.282       .  A
O412       Ni415   1.916       .  S
O412        C417   1.282       .  A
O413       Ni415   1.918       .  S
O413        C416   1.281       .  A
Ni414      Ni415   2.385       .  S
C417        C502   1.485       .  S
C418        C424   1.484       .  S
C419        C493   1.486       .  S
C420        C421   1.406       .  A
C420        C425   1.409   1_455  A
C420        C441   1.485       .  S
C421        C422   1.400   1_455  A
C421        H426   1.084       .  S
C422       C1079   1.400       .  A
C422        C989   1.474       .  S
C423       C1078   1.400       .  A
C423        C424   1.407       .  A
C423        H427   1.084       .  S
C424       C1081   1.410       .  A
C425       C1080   1.410       .  A
C425        H428   1.083       .  S
O429       Ni437   1.925       .  S
O429        C439   1.283       .  A
O430       Ni437   1.919       .  S
O430        C440   1.283       .  A
O431       Ni437   1.924       .  S
O431        C441   1.282       .  A
O432       Ni437   1.918       .  S
O432        C442   1.282       .  A
O433       Ni438   1.921       .  S
O433        C442   1.282       .  A
O434       Ni438   1.918       .  S
O434        C441   1.282       .  A
O435       Ni438   1.918       .  S
O435        C440   1.281       .  A
O436       Ni438   1.916       .  S
O436        C439   1.282       .  A
Ni437      Ni438   2.385       .  S
C439        C468   1.485       .  S
C440        C475   1.483       .  S
C442        C497   1.485       .  S
C443        C444   1.407       .  A
C443        C448   1.410       .  A
C443        C465   1.485       .  S
C444        C445   1.400       .  A
C444        H449   1.084       .  S
C445       C1102   1.400   1_455  A
C445        C524   1.473       .  S
C446       C1101   1.400       .  A
C446        C447   1.406       .  A
C446        H450   1.084       .  S
C447       C1104   1.409       .  A
C448       C1103   1.409   1_455  A
C448        H451   1.083       .  S
O452       Ni460   1.925       .  S
O452        C462   1.283       .  A
O453       Ni460   1.919       .  S
O453        C463   1.283       .  A
O454       Ni460   1.924       .  S
O454        C464   1.282       .  A
O455       Ni460   1.918       .  S
O455        C465   1.282       .  A
O456       Ni461   1.921       .  S
O456        C465   1.282       .  A
O457       Ni461   1.918       .  S
O457        C464   1.282       .  A
O458       Ni461   1.918       .  S
O458        C463   1.281       .  A
O459       Ni461   1.917       .  S
O459        C462   1.282       .  A
Ni460      Ni461   2.385       .  S
C462        C477   1.486       .  S
C463        C466   1.484       .  S
C464        C488   1.485       .  S
C466        C467   1.410       .  A
C466        C471   1.406       .  A
C467        H472   1.083       .  S
C468        C469   1.406       .  A
C469        H473   1.084       .  S
C470        C471   1.399       .  A
C470        C511   1.473       .  S
C471        H474   1.084       .  S
C475        C476   1.410       .  A
C475        C480   1.406       .  A
C476        C477   1.409       .  A
C476        H481   1.083       .  S
C477        C478   1.407       .  A
C478        C479   1.401       .  A
C478        H482   1.084       .  S
C479        C480   1.399       .  A
C480        H483   1.084       .  S
C484        C485   1.407       .  A
C484        C489   1.410       .  A
C485        C486   1.400       .  A
C485        H490   1.084       .  S
C486        C487   1.400       .  A
C487        C488   1.406       .  A
C487        H491   1.084       .  S
C488        C489   1.409       .  A
C489        H492   1.083       .  S
C493        C494   1.406       .  A
C493        C498   1.409       .  A
C494        C495   1.400       .  A
C494        H499   1.084       .  S
C495        C496   1.400       .  A
C496        C497   1.407       .  A
C496        H500   1.084       .  S
C497        C498   1.410       .  A
C498        H501   1.083       .  S
C502        C503   1.406       .  A
C502        C507   1.409       .  A
C503        C504   1.400       .  A
C503        H508   1.084       .  S
C504        C505   1.400       .  A
C505        C506   1.406       .  A
C505        H509   1.084       .  S
C506        C507   1.410       .  A
C507        H510   1.083       .  S
C511        C512   1.399       .  A
C511        C516   1.402   1_556  A
C512        C513   1.409   1_556  A
C512        H517   1.079       .  S
C513        C514   1.409       .  A
C514        C515   1.399       .  A
C514        H518   1.079       .  S
C515        C516   1.402       .  A
C515        C593   1.472       .  S
C516        H519   1.083       .  S
C520        C521   1.400       .  A
C520        C525   1.402   1_655  A
C520        C600   1.473       .  S
C521        C522   1.410       .  A
C521        H526   1.080       .  S
C522        C523   1.410   1_654  A
C523        C524   1.400       .  A
C523        H527   1.080       .  S
C524        C525   1.402   1_556  A
C525        H528   1.083       .  S
C529        C530   1.407       .  A
C529        C534   1.410       .  A
C529        C550   1.484       .  S
C530        C531   1.400       .  A
C530        H535   1.084       .  S
C531       C1188   1.400   1_455  A
C531        C985   1.473       .  S
C532       C1187   1.400       .  A
C532        C533   1.406       .  A
C532        H536   1.084       .  S
C533       C1190   1.409       .  A
C533        C564   1.486       .  S
C534       C1189   1.409   1_455  A
C534        H537   1.083       .  S
O538       Ni546   1.920       .  S
O538        C548   1.283       .  A
O539       Ni546   1.925       .  S
O539        C549   1.283       .  A
O540       Ni546   1.917       .  S
O540        C550   1.282       .  A
O541       Ni546   1.924       .  S
O541        C551   1.282       .  A
O542       Ni547   1.918       .  S
O542        C551   1.282       .  A
O543       Ni547   1.920       .  S
O543        C550   1.282       .  A
O544       Ni547   1.917       .  S
O544        C549   1.282       .  A
O545       Ni547   1.919       .  S
O545        C548   1.281       .  A
Ni546      Ni547   2.385       .  S
C548        C591   1.484       .  S
C549        C630   1.485       .  S
C551        C648   1.485       .  S
O552       Ni560   1.925       .  S
O552        C562   1.283       .  A
O553       Ni560   1.919       .  S
O553        C563   1.283       .  A
O554       Ni560   1.924       .  S
O554        C564   1.282       .  A
O555       Ni560   1.917       .  S
O555        C565   1.282       .  A
O556       Ni561   1.921       .  S
O556        C565   1.282       .  A
O557       Ni561   1.918       .  S
O557        C564   1.282       .  A
O558       Ni561   1.918       .  S
O558        C563   1.281       .  A
O559       Ni561   1.916       .  S
O559        C562   1.282       .  A
Ni560      Ni561   2.385       .  S
C562        C570   1.485       .  S
C563        C639   1.483       .  S
C565        C650   1.484       .  S
C566        C567   1.406       .  A
C566        C571   1.410       .  A
C566        C585   1.483       .  S
C567        C568   1.398       .  A
C567        H572   1.084       .  S
C569        C570   1.406       .  A
C569        H573   1.084       .  S
C571        H574   1.083       .  S
O575       Ni583   1.919       .  S
O575        C585   1.283       .  A
O576       Ni583   1.925       .  S
O576        C586   1.283       .  A
O577       Ni583   1.918       .  S
O577        C587   1.282       .  A
O578       Ni583   1.924       .  S
O578        C588   1.282       .  A
O579       Ni584   1.918       .  S
O579        C588   1.282       .  A
O580       Ni584   1.921       .  S
O580        C587   1.282       .  A
O581       Ni584   1.916       .  S
O581        C586   1.282       .  A
O582       Ni584   1.918       .  S
O582        C585   1.281       .  A
Ni583      Ni584   2.385       .  S
C586        C643   1.485       .  S
C587        C598   1.485       .  S
C588        C625   1.485       .  S
C589        C590   1.409       .  A
C589        C594   1.407       .  A
C589        C617   1.486       .  S
C590        H595   1.083       .  S
C591        C592   1.406       .  A
C592        H596   1.084       .  S
C593        C594   1.401       .  A
C594        H597   1.084       .  S
C598        C599   1.407       .  A
C598       C1259   1.410       .  A
C599       C1256   1.400       .  A
C599        H604   1.084       .  S
C600       C1255   1.400       .  A
C600        C601   1.400   1_655  A
C601        C602   1.406       .  A
C601        H605   1.084       .  S
C602        C603   1.409   1_455  A
C602        C619   1.485       .  S
C603       C1254   1.410       .  A
C603        H606   1.083       .  S
O607       Ni615   1.925       .  S
O607        C617   1.283       .  A
O608       Ni615   1.919       .  S
O608        C618   1.283       .  A
O609       Ni615   1.924       .  S
O609        C619   1.282       .  A
O610       Ni615   1.918       .  S
O610        C620   1.282       .  A
O611       Ni616   1.921       .  S
O611        C620   1.282       .  A
O612       Ni616   1.918       .  S
O612        C619   1.282       .  A
O613       Ni616   1.918       .  S
O613        C618   1.281       .  A
O614       Ni616   1.917       .  S
O614        C617   1.282       .  A
Ni615      Ni616   2.385       .  S
C618        C632   1.483       .  S
C620        C621   1.485       .  S
C621        C622   1.407       .  A
C621        C626   1.410       .  A
C622        C623   1.400       .  A
C622        H627   1.084       .  S
C623        C624   1.400       .  A
C624        C625   1.406       .  A
C624        H628   1.084       .  S
C625        C626   1.409       .  A
C626        H629   1.083       .  S
C630        C631   1.409       .  A
C630        C635   1.406       .  A
C631        C632   1.410       .  A
C631        H636   1.083       .  S
C632        C633   1.406       .  A
C633        C634   1.399       .  A
C633        H637   1.084       .  S
C634        C635   1.401       .  A
C635        H638   1.084       .  S
C639        C640   1.406       .  A
C639        C644   1.410       .  A
C640        C641   1.399       .  A
C640        H645   1.084       .  S
C641        C642   1.400       .  A
C642        C643   1.406       .  A
C642        H646   1.084       .  S
C643        C644   1.409       .  A
C644        H647   1.083       .  S
C648        C649   1.409       .  A
C648        C653   1.406       .  A
C649        C650   1.410       .  A
C649        H654   1.083       .  S
C650        C651   1.407       .  A
C651        C652   1.400       .  A
C651        H655   1.084       .  S
C652        C653   1.400       .  A
C653        H656   1.084       .  S
C657        C662   1.402   1_554  A
C658        C659   1.410       .  A
C658        H663   1.080       .  S
C659        C660   1.410   1_554  A
C659        C850   1.503       .  S
C660        H664   1.080       .  S
C661        C662   1.402   1_655  A
C662        H665   1.083       .  S
C666        C667   1.402   1_556  A
C666        C671   1.399       .  A
C666        C715   1.473       .  S
C667        C668   1.402       .  A
C667        H672   1.083       .  S
C668        C669   1.399       .  A
C668        C896   1.472       .  S
C669        C670   1.409       .  A
C669        H673   1.079       .  S
C670        C671   1.409   1_554  A
C670        C841   1.502       .  S
C671        H674   1.079   1_545  S
C675        C676   1.402       .  A
C675        C680   1.400       .  A
C675        C832   1.473       .  S
C676        C677   1.402       .  A
C676        H681   1.083       .  S
C677        C678   1.399       .  A
C677        C969   1.473       .  S
C678        C679   1.410       .  A
C678        H682   1.080       .  S
C679        C680   1.410       .  A
C680        H683   1.080       .  S
C684        C685   1.400       .  A
C684        C689   1.402       .  A
C684        C980   1.473       .  S
C685        C686   1.410       .  A
C685        H690   1.080       .  S
C686        C687   1.410       .  A
C686       C1023   1.502       .  S
C687        C688   1.400       .  A
C687        H691   1.080       .  S
C688        C689   1.402       .  A
C688        C823   1.474       .  S
C689        H692   1.083       .  S
C693        C694   1.400       .  A
C693        C698   1.402       .  A
C693        C814   1.473       .  S
C694        C695   1.410       .  A
C694        H699   1.080       .  S
C695        C696   1.410       .  A
C695       C1014   1.503   1_545  S
C696        C697   1.400       .  A
C696        H700   1.080       .  S
C697        C698   1.402       .  A
C697        C951   1.473       .  S
C698        H701   1.083       .  S
C702        C703   1.402       .  A
C702        C707   1.399       .  A
C702        C807   1.472       .  S
C703        C704   1.402       .  A
C703        H708   1.083       .  S
C704        C705   1.399       .  A
C704        C962   1.472       .  S
C705        C706   1.409       .  A
C705        H709   1.079       .  S
C706        C707   1.409       .  A
C707        H710   1.079       .  S
C711        C712   1.409       .  A
C711        C716   1.406       .  A
C711        C731   1.485       .  S
C712       C1041   1.410   1_545  A
C712        H717   1.083       .  S
C713       C1040   1.410       .  A
C713        C714   1.406       .  A
C713        C744   1.483       .  S
C714       C1043   1.399       .  A
C714        H718   1.084       .  S
C715       C1042   1.399   1_545  A
C715        C716   1.401       .  A
C716        H719   1.084       .  S
O720       Ni728   1.920       .  S
O720        C730   1.283       .  A
O721       Ni728   1.925       .  S
O721        C731   1.283       .  A
O722       Ni728   1.917       .  S
O722        C732   1.282       .  A
O723       Ni728   1.924       .  S
O723        C733   1.282       .  A
O724       Ni729   1.918       .  S
O724        C733   1.282       .  A
O725       Ni729   1.920       .  S
O725        C732   1.282       .  A
O726       Ni729   1.917       .  S
O726        C731   1.282       .  A
O727       Ni729   1.919       .  S
O727        C730   1.281       .  A
Ni728      Ni729   2.385       .  S
C730        C834   1.484       .  S
C732        C812   1.484       .  S
C733        C775   1.485       .  S
O734       Ni742   1.919       .  S
O734        C744   1.283       .  A
O735       Ni742   1.925       .  S
O735        C745   1.283       .  A
O736       Ni742   1.918       .  S
O736        C746   1.282       .  A
O737       Ni742   1.924       .  S
O737        C747   1.282       .  A
O738       Ni743   1.918       .  S
O738        C747   1.282       .  A
O739       Ni743   1.921       .  S
O739        C746   1.282       .  A
O740       Ni743   1.916       .  S
O740        C745   1.282       .  A
O741       Ni743   1.918       .  S
O741        C744   1.281       .  A
Ni742      Ni743   2.385       .  S
C745        C830   1.485       .  S
C746        C752   1.484       .  S
C747        C821   1.486       .  S
C748        C749   1.406       .  A
C748        C753   1.409       .  A
C748        C769   1.485       .  S
C749        C750   1.400       .  A
C749        H754   1.084       .  S
C751        C752   1.407       .  A
C751        H755   1.084       .  S
C753        H756   1.083       .  S
O757       Ni765   1.925       .  S
O757        C767   1.283       .  A
O758       Ni765   1.919       .  S
O758        C768   1.283       .  A
O759       Ni765   1.924       .  S
O759        C769   1.282       .  A
O760       Ni765   1.918       .  S
O760        C770   1.282       .  A
O761       Ni766   1.921       .  S
O761        C770   1.282       .  A
O762       Ni766   1.918       .  S
O762        C769   1.282       .  A
O763       Ni766   1.918       .  S
O763        C768   1.281       .  A
O764       Ni766   1.916       .  S
O764        C767   1.282       .  A
Ni765      Ni766   2.385       .  S
C767        C796   1.485       .  S
C768        C803   1.483       .  S
C770        C825   1.485       .  S
C771        C772   1.407       .  A
C771        C776   1.410       .  A
C771        C793   1.485       .  S
C772        C773   1.400       .  A
C772        H777   1.084       .  S
C773        C852   1.473       .  S
C774        C775   1.406       .  A
C774        H778   1.084       .  S
C776        H779   1.083       .  S
O780       Ni788   1.925       .  S
O780        C790   1.283       .  A
O781       Ni788   1.919       .  S
O781        C791   1.283       .  A
O782       Ni788   1.924       .  S
O782        C792   1.282       .  A
O783       Ni788   1.918       .  S
O783        C793   1.282       .  A
O784       Ni789   1.921       .  S
O784        C793   1.282       .  A
O785       Ni789   1.918       .  S
O785        C792   1.282       .  A
O786       Ni789   1.918       .  S
O786        C791   1.281       .  A
O787       Ni789   1.917       .  S
O787        C790   1.282       .  A
Ni788      Ni789   2.385       .  S
C790        C805   1.486       .  S
C791        C794   1.484       .  S
C792        C816   1.485       .  S
C794        C795   1.410       .  A
C794        C799   1.406       .  A
C795       C1124   1.409   1_545  A
C795        H800   1.083       .  S
C796       C1123   1.409       .  A
C796        C797   1.406       .  A
C797       C1126   1.400       .  A
C797        H801   1.084       .  S
C798       C1125   1.401   1_545  A
C798        C799   1.399       .  A
C798        C839   1.473       .  S
C799        H802   1.084       .  S
C803        C804   1.410       .  A
C803        C808   1.406       .  A
C804        C805   1.409       .  A
C804        H809   1.083       .  S
C805        C806   1.407       .  A
C806        C807   1.401       .  A
C806        H810   1.084       .  S
C807        C808   1.399       .  A
C808        H811   1.084       .  S
C812        C813   1.407       .  A
C812        C817   1.410       .  A
C813        C814   1.400       .  A
C813        H818   1.084       .  S
C814        C815   1.400       .  A
C815        C816   1.406       .  A
C815        H819   1.084       .  S
C816        C817   1.409       .  A
C817        H820   1.083       .  S
C821        C822   1.406       .  A
C821        C826   1.409       .  A
C822        C823   1.400       .  A
C822        H827   1.084       .  S
C823        C824   1.400       .  A
C824        C825   1.407       .  A
C824        H828   1.084       .  S
C825        C826   1.410       .  A
C826        H829   1.083       .  S
C830        C831   1.406       .  A
C830        C835   1.409       .  A
C831        C832   1.400       .  A
C831        H836   1.084       .  S
C832        C833   1.400       .  A
C833        C834   1.406       .  A
C833        H837   1.084       .  S
C834        C835   1.410       .  A
C835        H838   1.083       .  S
C839        C840   1.399       .  A
C839        C844   1.402   1_556  A
C840        C841   1.409   1_556  A
C840        H845   1.079       .  S
C841        C842   1.409       .  A
C842        C843   1.399       .  A
C842        H846   1.079   1_545  S
C843        C844   1.402       .  A
C843        C921   1.472       .  S
C844        H847   1.083       .  S
C848        C849   1.400       .  A
C848        C853   1.402       .  A
C848        C928   1.473       .  S
C849        C850   1.410       .  A
C849        H854   1.080       .  S
C850        C851   1.410   1_554  A
C851        C852   1.400       .  A
C851        H855   1.080       .  S
C852        C853   1.402   1_556  A
C853        H856   1.083       .  S
C857        C858   1.407       .  A
C857        C862   1.410       .  A
C857        C878   1.484       .  S
C858        C859   1.400       .  A
C858        H863   1.084       .  S
C860        C861   1.406       .  A
C860        H864   1.084       .  S
C861        C892   1.486       .  S
C862        H865   1.083       .  S
O866       Ni874   1.920       .  S
O866        C876   1.283       .  A
O867       Ni874   1.925       .  S
O867        C877   1.283       .  A
O868       Ni874   1.917       .  S
O868        C878   1.282       .  A
O869       Ni874   1.924       .  S
O869        C879   1.282       .  A
O870       Ni875   1.918       .  S
O870        C879   1.282       .  A
O871       Ni875   1.920       .  S
O871        C878   1.282       .  A
O872       Ni875   1.917       .  S
O872        C877   1.282       .  A
O873       Ni875   1.919       .  S
O873        C876   1.281       .  A
Ni874      Ni875   2.385       .  S
C876        C919   1.484       .  S
C877        C958   1.485       .  S
C879        C976   1.485       .  S
O880       Ni888   1.925       .  S
O880        C890   1.283       .  A
O881       Ni888   1.919       .  S
O881        C891   1.283       .  A
O882       Ni888   1.924       .  S
O882        C892   1.282       .  A
O883       Ni888   1.917       .  S
O883        C893   1.282       .  A
O884       Ni889   1.921       .  S
O884        C893   1.282       .  A
O885       Ni889   1.918       .  S
O885        C892   1.282       .  A
O886       Ni889   1.918       .  S
O886        C891   1.281       .  A
O887       Ni889   1.916       .  S
O887        C890   1.282       .  A
Ni888      Ni889   2.385       .  S
C890        C898   1.485       .  S
C891        C967   1.483       .  S
C893        C978   1.484       .  S
C894        C895   1.406       .  A
C894        C899   1.410       .  A
C894        C913   1.483       .  S
C895        C896   1.398       .  A
C895        H900   1.084       .  S
C896       C1225   1.401   1_545  A
C897       C1224   1.400       .  A
C897        C898   1.406       .  A
C897        H901   1.084       .  S
C898       C1227   1.408       .  A
C899       C1226   1.409   1_545  A
C899        H902   1.083       .  S
O903       Ni911   1.919       .  S
O903        C913   1.283       .  A
O904       Ni911   1.925       .  S
O904        C914   1.283       .  A
O905       Ni911   1.918       .  S
O905        C915   1.282       .  A
O906       Ni911   1.924       .  S
O906        C916   1.282       .  A
O907       Ni912   1.918       .  S
O907        C916   1.282       .  A
O908       Ni912   1.921       .  S
O908        C915   1.282       .  A
O909       Ni912   1.916       .  S
O909        C914   1.282       .  A
O910       Ni912   1.918       .  S
O910        C913   1.281       .  A
Ni911      Ni912   2.385       .  S
C914        C971   1.485       .  S
C915        C926   1.485       .  S
C916        C953   1.485       .  S
C917        C918   1.409       .  A
C917        C922   1.407       .  A
C917        C945   1.486       .  S
C918       C1247   1.410   1_545  A
C918        H923   1.083       .  S
C919       C1246   1.410       .  A
C919        C920   1.406       .  A
C920       C1249   1.400       .  A
C920        H924   1.084       .  S
C921       C1248   1.398   1_545  A
C921        C922   1.401       .  A
C922        H925   1.084       .  S
C926        C927   1.407       .  A
C927        H932   1.084       .  S
C928        C929   1.400       .  A
C929        C930   1.406       .  A
C929        H933   1.084       .  S
C930        C931   1.409       .  A
C930        C947   1.485       .  S
C931        H934   1.083       .  S
O935       Ni943   1.925       .  S
O935        C945   1.283       .  A
O936       Ni943   1.919       .  S
O936        C946   1.283       .  A
O937       Ni943   1.924       .  S
O937        C947   1.282       .  A
O938       Ni943   1.918       .  S
O938        C948   1.282       .  A
O939       Ni944   1.921       .  S
O939        C948   1.282       .  A
O940       Ni944   1.917       .  S
O940        C947   1.282       .  A
O941       Ni944   1.918       .  S
O941        C946   1.281       .  A
O942       Ni944   1.917       .  S
O942        C945   1.282       .  A
Ni943      Ni944   2.385       .  S
C946        C960   1.484       .  S
C948        C949   1.485       .  S
C949        C950   1.407       .  A
C949        C954   1.410       .  A
C950        C951   1.400       .  A
C950        H955   1.084       .  S
C951        C952   1.400       .  A
C952        C953   1.406       .  A
C952        H956   1.084       .  S
C953        C954   1.409       .  A
C954        H957   1.083       .  S
C958        C959   1.409       .  A
C958        C963   1.406       .  A
C959        C960   1.410       .  A
C959        H964   1.083       .  S
C960        C961   1.406       .  A
C961        C962   1.399       .  A
C961        H965   1.084       .  S
C962        C963   1.401       .  A
C963        H966   1.084       .  S
C967        C968   1.406       .  A
C967        C972   1.410       .  A
C968        C969   1.399       .  A
C968        H973   1.084       .  S
C969        C970   1.400       .  A
C970        C971   1.406       .  A
C970        H974   1.084       .  S
C971        C972   1.409       .  A
C972        H975   1.083       .  S
C976        C977   1.409       .  A
C976        C981   1.406       .  A
C977        C978   1.410       .  A
C977        H982   1.083       .  S
C978        C979   1.407       .  A
C979        C980   1.400       .  A
C979        H983   1.084       .  S
C980        C981   1.400       .  A
C981        H984   1.084       .  S
C985        C990   1.402   1_455  A
C986        C987   1.410   1_554  A
C986        H991   1.080       .  S
C987        C988   1.410       .  A
C987       C1178   1.502       .  S
C988        H992   1.080       .  S
C989        C990   1.402   1_556  A
C990        H993   1.083       .  S
C994        C995   1.402       .  A
C994        C999   1.399       .  A
C994       C1043   1.473       .  S
C995        C996   1.402   1_556  A
C995       H1000   1.083       .  S
C996        C997   1.400       .  A
C996       C1224   1.473       .  S
C997        C998   1.410   1_554  A
C997       H1001   1.080       .  S
C998        C999   1.410       .  A
C998       C1169   1.502       .  S
C999       H1002   1.080       .  S
C1003      C1004   1.402       .  A
C1003      C1008   1.399       .  A
C1003      C1160   1.472       .  S
C1004      C1005   1.402       .  A
C1004      H1009   1.083       .  S
C1005      C1006   1.399       .  A
C1005      C1297   1.472       .  S
C1006      C1007   1.409       .  A
C1006      H1010   1.079       .  S
C1007      C1008   1.409       .  A
C1008      H1011   1.079       .  S
C1012      C1013   1.400       .  A
C1012      C1017   1.402       .  A
C1012      C1308   1.474       .  S
C1013      C1014   1.410       .  A
C1013      H1018   1.080       .  S
C1014      C1015   1.410       .  A
C1015      C1016   1.400       .  A
C1015      H1019   1.080       .  S
C1016      C1017   1.402       .  A
C1016      C1151   1.473       .  S
C1017      H1020   1.083       .  S
C1021      C1022   1.400       .  A
C1021      C1026   1.402       .  A
C1021      C1142   1.474       .  S
C1022      C1023   1.410       .  A
C1022      H1027   1.080       .  S
C1023      C1024   1.410       .  A
C1024      C1025   1.400       .  A
C1024      H1028   1.080       .  S
C1025      C1026   1.402       .  A
C1025      C1279   1.473       .  S
C1026      H1029   1.083       .  S
C1030      C1031   1.402       .  A
C1030      C1035   1.400       .  A
C1030      C1135   1.473       .  S
C1031      C1032   1.402       .  A
C1031      H1036   1.083       .  S
C1032      C1033   1.399       .  A
C1032      C1290   1.473       .  S
C1033      C1034   1.410       .  A
C1033      H1037   1.080       .  S
C1034      C1035   1.410       .  A
C1035      H1038   1.080       .  S
C1039      C1040   1.409       .  A
C1039      C1044   1.406       .  A
C1039      C1059   1.485       .  S
C1040      H1045   1.083       .  S
C1041      C1042   1.406       .  A
C1041      C1072   1.484       .  S
C1042      H1046   1.084       .  S
C1043      C1044   1.400       .  A
C1044      H1047   1.084       .  S
O1048     Ni1056   1.919       .  S
O1048      C1058   1.283       .  A
O1049     Ni1056   1.925       .  S
O1049      C1059   1.283       .  A
O1050     Ni1056   1.918       .  S
O1050      C1060   1.282       .  A
O1051     Ni1056   1.924       .  S
O1051      C1061   1.282       .  A
O1052     Ni1057   1.918       .  S
O1052      C1061   1.282       .  A
O1053     Ni1057   1.921       .  S
O1053      C1060   1.282       .  A
O1054     Ni1057   1.916       .  S
O1054      C1059   1.282       .  A
O1055     Ni1057   1.918       .  S
O1055      C1058   1.281       .  A
Ni1056    Ni1057   2.385       .  S
C1058      C1162   1.483       .  S
C1060      C1140   1.485       .  S
C1061      C1103   1.485       .  S
O1062     Ni1070   1.919       .  S
O1062      C1072   1.283       .  A
O1063     Ni1070   1.925       .  S
O1063      C1073   1.283       .  A
O1064     Ni1070   1.918       .  S
O1064      C1074   1.282       .  A
O1065     Ni1070   1.924       .  S
O1065      C1075   1.282       .  A
O1066     Ni1071   1.918       .  S
O1066      C1075   1.282       .  A
O1067     Ni1071   1.921       .  S
O1067      C1074   1.282       .  A
O1068     Ni1071   1.917       .  S
O1068      C1073   1.282       .  A
O1069     Ni1071   1.918       .  S
O1069      C1072   1.281       .  A
Ni1070    Ni1071   2.385       .  S
C1073      C1158   1.486       .  S
C1074      C1080   1.485       .  S
C1075      C1149   1.485       .  S
C1076      C1077   1.406       .  A
C1076      C1081   1.409       .  A
C1076      C1097   1.485       .  S
C1077      C1078   1.400       .  A
C1077      H1082   1.084       .  S
C1079      C1080   1.407       .  A
C1079      H1083   1.084       .  S
C1081      H1084   1.083       .  S
O1085     Ni1093   1.925       .  S
O1085      C1095   1.283       .  A
O1086     Ni1093   1.920       .  S
O1086      C1096   1.283       .  A
O1087     Ni1093   1.924       .  S
O1087      C1097   1.282       .  A
O1088     Ni1093   1.917       .  S
O1088      C1098   1.282       .  A
O1089     Ni1094   1.920       .  S
O1089      C1098   1.282       .  A
O1090     Ni1094   1.918       .  S
O1090      C1097   1.282       .  A
O1091     Ni1094   1.919       .  S
O1091      C1096   1.281       .  A
O1092     Ni1094   1.917       .  S
O1092      C1095   1.282       .  A
Ni1093    Ni1094   2.385       .  S
C1095      C1124   1.485       .  S
C1096      C1131   1.484       .  S
C1098      C1153   1.484       .  S
C1099      C1100   1.407       .  A
C1099      C1104   1.410       .  A
C1099      C1121   1.484       .  S
C1100      C1101   1.400       .  A
C1100      H1105   1.084       .  S
C1101      C1180   1.473       .  S
C1102      C1103   1.406       .  A
C1102      H1106   1.084       .  S
C1104      H1107   1.083       .  S
O1108     Ni1116   1.925       .  S
O1108      C1118   1.283       .  A
O1109     Ni1116   1.919       .  S
O1109      C1119   1.283       .  A
O1110     Ni1116   1.924       .  S
O1110      C1120   1.282       .  A
O1111     Ni1116   1.918       .  S
O1111      C1121   1.282       .  A
O1112     Ni1117   1.921       .  S
O1112      C1121   1.282       .  A
O1113     Ni1117   1.918       .  S
O1113      C1120   1.282       .  A
O1114     Ni1117   1.918       .  S
O1114      C1119   1.281       .  A
O1115     Ni1117   1.916       .  S
O1115      C1118   1.282       .  A
Ni1116    Ni1117   2.385       .  S
C1118      C1133   1.485       .  S
C1119      C1122   1.483       .  S
C1120      C1144   1.486       .  S
C1122      C1123   1.410       .  A
C1122      C1127   1.406       .  A
C1123      H1128   1.083       .  S
C1124      C1125   1.406       .  A
C1125      H1129   1.084       .  S
C1126      C1127   1.399       .  A
C1126      C1167   1.473       .  S
C1127      H1130   1.084       .  S
C1131      C1132   1.410       .  A
C1131      C1136   1.406       .  A
C1132      C1133   1.408       .  A
C1132      H1137   1.083       .  S
C1133      C1134   1.406       .  A
C1134      C1135   1.400       .  A
C1134      H1138   1.084       .  S
C1135      C1136   1.400       .  A
C1136      H1139   1.084       .  S
C1140      C1141   1.407       .  A
C1140      C1145   1.410       .  A
C1141      C1142   1.400       .  A
C1141      H1146   1.084       .  S
C1142      C1143   1.400       .  A
C1143      C1144   1.406       .  A
C1143      H1147   1.084       .  S
C1144      C1145   1.409       .  A
C1145      H1148   1.083       .  S
C1149      C1150   1.406       .  A
C1149      C1154   1.409       .  A
C1150      C1151   1.400       .  A
C1150      H1155   1.084       .  S
C1151      C1152   1.400       .  A
C1152      C1153   1.407       .  A
C1152      H1156   1.084       .  S
C1153      C1154   1.410       .  A
C1154      H1157   1.083       .  S
C1158      C1159   1.407       .  A
C1158      C1163   1.409       .  A
C1159      C1160   1.401       .  A
C1159      H1164   1.084       .  S
C1160      C1161   1.398       .  A
C1161      C1162   1.406       .  A
C1161      H1165   1.084       .  S
C1162      C1163   1.410       .  A
C1163      H1166   1.083       .  S
C1167      C1168   1.399       .  A
C1167      C1172   1.402       .  A
C1168      C1169   1.410       .  A
C1168      H1173   1.080       .  S
C1169      C1170   1.410   1_556  A
C1170      C1171   1.400       .  A
C1170      H1174   1.080       .  S
C1171      C1172   1.402   1_554  A
C1171      C1249   1.473       .  S
C1172      H1175   1.083       .  S
C1176      C1177   1.400       .  A
C1176      C1181   1.402   1_554  A
C1176      C1256   1.474       .  S
C1177      C1178   1.410   1_554  A
C1177      H1182   1.080       .  S
C1178      C1179   1.410       .  A
C1179      C1180   1.400       .  A
C1179      H1183   1.080       .  S
C1180      C1181   1.402       .  A
C1181      H1184   1.083       .  S
C1185      C1186   1.407       .  A
C1185      C1190   1.410       .  A
C1185      C1206   1.485       .  S
C1186      C1187   1.400       .  A
C1186      H1191   1.084       .  S
C1188      C1189   1.406       .  A
C1188      H1192   1.084       .  S
C1189      C1220   1.485       .  S
C1190      H1193   1.083       .  S
O1194     Ni1202   1.919       .  S
O1194      C1204   1.283       .  A
O1195     Ni1202   1.925       .  S
O1195      C1205   1.283       .  A
O1196     Ni1202   1.918       .  S
O1196      C1206   1.282       .  A
O1197     Ni1202   1.924       .  S
O1197      C1207   1.282       .  A
O1198     Ni1203   1.918       .  S
O1198      C1207   1.282       .  A
O1199     Ni1203   1.921       .  S
O1199      C1206   1.282       .  A
O1200     Ni1203   1.916       .  S
O1200      C1205   1.282       .  A
O1201     Ni1203   1.918       .  S
O1201      C1204   1.281       .  A
Ni1202    Ni1203   2.385       .  S
C1204      C1247   1.483       .  S
C1205      C1286   1.485       .  S
C1207      C1304   1.485       .  S
O1208     Ni1216   1.925       .  S
O1208      C1218   1.283       .  A
O1209     Ni1216   1.919       .  S
O1209      C1219   1.283       .  A
O1210     Ni1216   1.924       .  S
O1210      C1220   1.282       .  A
O1211     Ni1216   1.918       .  S
O1211      C1221   1.282       .  A
O1212     Ni1217   1.921       .  S
O1212      C1221   1.282       .  A
O1213     Ni1217   1.918       .  S
O1213      C1220   1.282       .  A
O1214     Ni1217   1.918       .  S
O1214      C1219   1.281       .  A
O1215     Ni1217   1.917       .  S
O1215      C1218   1.282       .  A
Ni1216    Ni1217   2.385       .  S
C1218      C1226   1.486       .  S
C1219      C1295   1.484       .  S
C1221      C1306   1.485       .  S
C1222      C1223   1.406       .  A
C1222      C1227   1.410       .  A
C1222      C1241   1.484       .  S
C1223      C1224   1.400       .  A
C1223      H1228   1.084       .  S
C1225      C1226   1.407       .  A
C1225      H1229   1.084       .  S
C1227      H1230   1.083       .  S
O1231     Ni1239   1.920       .  S
O1231      C1241   1.283       .  A
O1232     Ni1239   1.925       .  S
O1232      C1242   1.283       .  A
O1233     Ni1239   1.917       .  S
O1233      C1243   1.282       .  A
O1234     Ni1239   1.924       .  S
O1234      C1244   1.282       .  A
O1235     Ni1240   1.918       .  S
O1235      C1244   1.282       .  A
O1236     Ni1240   1.920       .  S
O1236      C1243   1.282       .  A
O1237     Ni1240   1.917       .  S
O1237      C1242   1.282       .  A
O1238     Ni1240   1.919       .  S
O1238      C1241   1.281       .  A
Ni1239    Ni1240   2.385       .  S
C1242      C1299   1.485       .  S
C1243      C1254   1.484       .  S
C1244      C1281   1.485       .  S
C1245      C1246   1.408       .  A
C1245      C1250   1.406       .  A
C1245      C1273   1.485       .  S
C1246      H1251   1.083       .  S
C1247      C1248   1.406       .  A
C1248      H1252   1.084       .  S
C1249      C1250   1.400       .  A
C1250      H1253   1.084       .  S
C1254      C1255   1.407       .  A
C1255      H1260   1.084       .  S
C1256      C1257   1.400       .  A
C1257      C1258   1.406       .  A
C1257      H1261   1.084       .  S
C1258      C1259   1.409       .  A
C1258      C1275   1.486       .  S
C1259      H1262   1.083       .  S
O1263     Ni1271   1.925       .  S
O1263      C1273   1.283       .  A
O1264     Ni1271   1.919       .  S
O1264      C1274   1.283       .  A
O1265     Ni1271   1.924       .  S
O1265      C1275   1.282       .  A
O1266     Ni1271   1.918       .  S
O1266      C1276   1.282       .  A
O1267     Ni1272   1.921       .  S
O1267      C1276   1.282       .  A
O1268     Ni1272   1.918       .  S
O1268      C1275   1.282       .  A
O1269     Ni1272   1.918       .  S
O1269      C1274   1.281       .  A
O1270     Ni1272   1.916       .  S
O1270      C1273   1.282       .  A
Ni1271    Ni1272   2.385       .  S
C1274      C1288   1.483       .  S
C1276      C1277   1.484       .  S
C1277      C1278   1.407       .  A
C1277      C1282   1.410       .  A
C1278      C1279   1.400       .  A
C1278      H1283   1.084       .  S
C1279      C1280   1.400       .  A
C1280      C1281   1.406       .  A
C1280      H1284   1.084       .  S
C1281      C1282   1.409       .  A
C1282      H1285   1.083       .  S
C1286      C1287   1.409       .  A
C1286      C1291   1.406       .  A
C1287      C1288   1.410       .  A
C1287      H1292   1.083       .  S
C1288      C1289   1.406       .  A
C1289      C1290   1.399       .  A
C1289      H1293   1.084       .  S
C1290      C1291   1.400       .  A
C1291      H1294   1.084       .  S
C1295      C1296   1.406       .  A
C1295      C1300   1.410       .  A
C1296      C1297   1.399       .  A
C1296      H1301   1.084       .  S
C1297      C1298   1.401       .  A
C1298      C1299   1.406       .  A
C1298      H1302   1.084       .  S
C1299      C1300   1.409       .  A
C1300      H1303   1.083       .  S
C1304      C1305   1.409       .  A
C1304      C1309   1.406       .  A
C1305      C1306   1.410       .  A
C1305      H1310   1.083       .  S
C1306      C1307   1.407       .  A
C1307      C1308   1.400       .  A
C1307      H1311   1.084       .  S
C1308      C1309   1.400       .  A
C1309      H1312   1.084       .  S
