geometry optimzed in LAMMPS
_audit_creation_date              2020-11-30 
_audit_creation_method            'lammps2cif' 
_symmetry_space_group_name_H-M    'P1' 
_symmetry_Int_Tables_number       1 
_symmetry_cell_setting            triclinic 
loop_ 
_symmetry_equiv_pos_as_xyz 
  x,y,z 
_cell_length_a                    29.4044266 
_cell_length_b                    32.02332341576682 
_cell_length_c                    33.22204052792046 
_cell_angle_alpha                 89.97451719736306 
_cell_angle_beta                  90.54019653052028 
_cell_angle_gamma                 89.29095877490022 
loop_ 
_atom_site_label 
_atom_site_type_symbol 
_atom_site_fract_x 
_atom_site_fract_y 
_atom_site_fract_z 
_atom_site_charge 
N1          N  0.30834956  0.44604406  0.04060179    -0.06800
N2          N  0.34158124  0.42961317  0.06312899    -0.60800
N3          N  0.27131921  0.42108885  0.94949984    -0.06500
N4          N  0.28014110  0.38761253  0.92779579    -0.61100
N5          N  0.30658738  0.44618967  0.94998910    -0.06100
N6          N  0.34046169  0.42910477  0.92939951    -0.58900
N7          N  0.27285063  0.42126484  0.04101177    -0.05800
N8          N  0.28048976  0.38897781  0.06462522    -0.61400
C9          C  0.32301370  0.39448092  0.07868595     0.95300
C10         C  0.32290760  0.39309280  0.91486222     0.95100
N11         N  0.13380005  0.45854046  0.95032138    -0.07000
N12         N  0.11046133  0.45987680  0.91620406    -0.59500
N13         N  0.16761611  0.42739684  0.04350433    -0.05100
N14         N  0.16859773  0.40725395  0.07822219    -0.60800
N15         N  0.13688863  0.45748037  0.04412718    -0.07000
N16         N  0.11648436  0.45853509  0.07930262    -0.59800
N17         N  0.16454780  0.42845427  0.94941722    -0.04800
N18         N  0.16245656  0.40844558  0.91474843    -0.60900
Mn19       Mn  0.21840922  0.42367855  0.99568385     1.18400
C20         C  0.12833693  0.42816134  0.89444125     0.97400
C21         C  0.13626336  0.42682861  0.10018549     0.98100
N22         N  0.30927945  0.54859051  0.94932878    -0.07100
N23         N  0.34195276  0.56119393  0.92505373    -0.63400
N24         N  0.27956677  0.57673451  0.04151685    -0.05900
N25         N  0.29025378  0.60787129  0.06544198    -0.64000
N26         N  0.31272001  0.54866356  0.04058289    -0.06600
N27         N  0.34735466  0.56136454  0.06317720    -0.63600
N28         N  0.27605365  0.57662970  0.94967787    -0.05500
N29         N  0.28469146  0.60754219  0.92497189    -0.64300
Mn30       Mn  0.31077588  0.49743032  0.99512331     1.10700
C31         C  0.32536639  0.59751520  0.90923009     0.98700
C32         C  0.33213188  0.59787218  0.07928155     0.98700
N33         N  0.13988304  0.55350550  0.04439319    -0.06600
N34         N  0.11700693  0.55569510  0.07828074    -0.62000
N35         N  0.17041494  0.58097090  0.95086205    -0.05900
N36         N  0.16986820  0.60220084  0.91684658    -0.58700
N37         N  0.13671003  0.55450983  0.95149398    -0.07200
N38         N  0.11222735  0.55736674  0.91806139    -0.61500
N39         N  0.17369342  0.57989276  0.04481472    -0.06200
N40         N  0.17488987  0.60035520  0.07928775    -0.58700
Mn41       Mn  0.13493797  0.50593416  0.99760115     1.20200
Mn42       Mn  0.22455869  0.57949834  0.99677626     1.10100
Cl43       Cl  0.22281837  0.50158802  0.99620920    -0.86700
C44         C  0.13896758  0.58527900  0.09960979     0.95700
C45         C  0.13309775  0.58755505  0.89690775     0.95500
N46         N  0.86382984  0.43257650  0.04129618    -0.06800
N47         N  0.88821650  0.42905469  0.07469909    -0.59000
N48         N  0.83007514  0.40582005  0.94753328    -0.06500
N49         N  0.82986729  0.38506735  0.91320812    -0.61100
N50         N  0.86425814  0.43178052  0.94867989    -0.06100
N51         N  0.88830604  0.42903007  0.91550617    -0.58900
N52         N  0.83005652  0.40616396  0.04145125    -0.05800
N53         N  0.83047527  0.38428729  0.07514292    -0.61400
C54         C  0.86723450  0.39857187  0.09542529     0.95300
C55         C  0.86675751  0.39953021  0.89379173     0.95100
N56         N  0.69054503  0.43808780  0.94814131    -0.07000
N57         N  0.65645589  0.42503634  0.92506991    -0.59500
N58         N  0.72443929  0.41099071  0.03968480    -0.05100
N59         N  0.71453774  0.37962078  0.06339132    -0.60800
N60         N  0.69125634  0.43909338  0.03919252    -0.07000
N61         N  0.65723735  0.42592115  0.06174414    -0.59800
N62         N  0.72385150  0.41013989  0.94796940    -0.04800
N63         N  0.71382385  0.37877427  0.92412751    -0.60900
Mn64       Mn  0.77737753  0.40744871  0.99408800     1.18400
C65         C  0.67221474  0.38844307  0.90949328     0.97400
C66         C  0.67308069  0.38929092  0.07753137     0.98100
N67         N  0.86774544  0.52742407  0.94634886    -0.07100
N68         N  0.88936585  0.52538637  0.91167779    -0.63400
N69         N  0.83651224  0.55900343  0.04002609    -0.05900
N70         N  0.83513946  0.57792475  0.07534219    -0.64000
N71         N  0.86722319  0.52884883  0.04069495    -0.06600
N72         N  0.88727542  0.52672721  0.07636919    -0.63600
N73         N  0.83686376  0.55740639  0.94538437    -0.05500
N74         N  0.83708792  0.57652583  0.91021410    -0.64300
Mn75       Mn  0.86774930  0.48034950  0.99435569     1.10700
C76         C  0.87019106  0.55649945  0.88952506     0.98700
C77         C  0.86725134  0.55771909  0.09765774     0.98700
N78         N  0.69583055  0.54258626  0.03756551    -0.06600
N79         N  0.66327676  0.56023378  0.05950119    -0.62000
N80         N  0.73026141  0.56505551  0.94558248    -0.05900
N81         N  0.72179696  0.59684547  0.92133787    -0.58700
N82         N  0.69504492  0.53994771  0.94660332    -0.07200
N83         N  0.66157893  0.55521802  0.92372948    -0.61500
N84         N  0.73161073  0.56701337  0.03728359    -0.06200
N85         N  0.72489204  0.60019652  0.05981622    -0.58700
Mn86       Mn  0.69166238  0.48996297  0.99304926     1.20200
Mn87       Mn  0.78454616  0.56308497  0.99189496     1.10100
Cl88       Cl  0.77996327  0.48522620  0.99335999    -0.86700
C89         C  0.68265018  0.59563091  0.07404589     0.95700
C90         C  0.67926399  0.59021702  0.90737722     0.95500
N91         N  0.44118542  0.04099840  0.29038010    -0.06800
N92         N  0.42509915  0.06595092  0.31891344    -0.59000
N93         N  0.41454371  0.94598074  0.25880197    -0.06500
N94         N  0.38139187  0.91941754  0.26449788    -0.61100
N95         N  0.44274072  0.94605384  0.28988495    -0.06100
N96         N  0.42817300  0.92000059  0.31786779    -0.58900
N97         N  0.41309615  0.04120102  0.25918479    -0.05800
N98         N  0.37857936  0.06684199  0.26531234    -0.61400
C99         C  0.38650237  0.08245259  0.30228211     0.95300
C100        C  0.39042630  0.90294713  0.30104248     0.95100
N101        N  0.45216928  0.94448875  0.13857525    -0.07000
N102        N  0.45501999  0.90726512  0.12136116    -0.59500
N103        N  0.41824584  0.04318759  0.16570891    -0.05100
N104        N  0.39567592  0.07908402  0.16598124    -0.60800
N105        N  0.45039520  0.04378992  0.13851545    -0.07000
N106        N  0.45036993  0.08044414  0.11992109    -0.59800
N107        N  0.42011128  0.94476793  0.16585476    -0.04800
N108        N  0.40057412  0.90795772  0.16764386    -0.60900
Mn109      Mn  0.41536487  0.99386169  0.21170205     1.18400
C110        C  0.42235696  0.88483870  0.13962696     0.97400
C111        C  0.41569694  0.10209869  0.13714199     0.98100
N112        N  0.55337531  0.94628875  0.29368017    -0.07100
N113        N  0.56697237  0.92034544  0.32262488    -0.63400
N114        N  0.58288855  0.04109083  0.26512053    -0.05900
N115        N  0.61631882  0.06666199  0.27328501    -0.64000
N116        N  0.55299848  0.04100789  0.29449162    -0.06600
N117        N  0.56683602  0.06607011  0.32392889    -0.63600
N118        N  0.58341268  0.94630945  0.26448062    -0.05500
N119        N  0.61685360  0.91993692  0.27223879    -0.64300
Mn120      Mn  0.49749937  0.99369282  0.29369375     1.10700
C121        C  0.60609996  0.90354153  0.30806270     0.98700
C122        C  0.60601251  0.08238760  0.30962706     0.98700
N123        N  0.55531684  0.04274281  0.14162310    -0.06600
N124        N  0.55653659  0.07834761  0.12157738    -0.62000
N125        N  0.58644925  0.94479591  0.17135480    -0.05900
N126        N  0.60985189  0.90928802  0.17204618    -0.58700
N127        N  0.55666413  0.94484076  0.14167020    -0.07200
N128        N  0.55922197  0.90927491  0.12153030    -0.61500
N129        N  0.58503946  0.04285383  0.17136606    -0.06200
N130        N  0.60702768  0.07854577  0.17224614    -0.58700
Mn131      Mn  0.50350838  0.99402949  0.13812941     1.20200
Mn132      Mn  0.58544586  0.99383318  0.21768423     1.10100
Cl133      Cl  0.50043000  0.99408280  0.21584234    -0.86700
C134        C  0.58918525  0.10032584  0.14083538     0.95700
C135        C  0.59279818  0.88742171  0.14061791     0.95500
N136        N  0.45161007  0.04302913  0.85655848    -0.06800
N137        N  0.45286630  0.07958217  0.87518678    -0.59000
N138        N  0.41754919  0.94592114  0.82791506    -0.06500
N139        N  0.39472193  0.91072260  0.82664625    -0.61100
N140        N  0.44883917  0.94437639  0.85633206    -0.06100
N141        N  0.44786435  0.90789934  0.87502359    -0.58900
N142        N  0.42050632  0.04385823  0.82794174    -0.05800
N143        N  0.40004130  0.08071239  0.82649831    -0.61400
C144        C  0.42022603  0.10273292  0.85622725     0.95300
C145        C  0.41364105  0.88730302  0.85635492     0.95100
N146        N  0.44327147  0.94608026  0.70449123    -0.07000
N147        N  0.42731063  0.92025741  0.67655097    -0.59500
N148        N  0.41739866  0.04241553  0.73494181    -0.05100
N149        N  0.38426493  0.06964126  0.72874618    -0.60800
N150        N  0.44537265  0.04128768  0.70416265    -0.07000
N151        N  0.43038027  0.06733568  0.67572943    -0.59800
N152        N  0.41508928  0.94742641  0.73511446    -0.04800
N153        N  0.38085535  0.92212462  0.72936822    -0.60900
Mn154      Mn  0.41673780  0.99498268  0.78197941     1.18400
C155        C  0.38870890  0.90502256  0.69313949     0.97400
C156        C  0.39278256  0.08545448  0.69216957     0.98100
N157        N  0.55367554  0.94061345  0.85534514    -0.07100
N158        N  0.55259454  0.90334259  0.87269093    -0.63400
N159        N  0.58612543  0.03903498  0.82725958    -0.05900
N160        N  0.60739651  0.07504968  0.82565933    -0.64000
N161        N  0.55588591  0.03957761  0.85611297    -0.06600
N162        N  0.55599934  0.07616247  0.87462227    -0.63600
N163        N  0.58454723  0.94086997  0.82702016    -0.05500
N164        N  0.60512105  0.90413832  0.82470765    -0.64300
Mn165      Mn  0.50261104  0.99177119  0.85814533     1.10700
C166        C  0.58522480  0.88094696  0.85340929     0.98700
C167        C  0.58857763  0.09792623  0.85552047     0.98700
N168        N  0.55713916  0.03799536  0.70331849    -0.06600
N169        N  0.57171102  0.06300708  0.67440067    -0.62000
N170        N  0.58480623  0.94239035  0.73414741    -0.05900
N171        N  0.61812211  0.91559844  0.72754729    -0.58700
N172        N  0.55552821  0.94296267  0.70381937    -0.07200
N173        N  0.56985676  0.91708217  0.67524062    -0.61500
N174        N  0.58672539  0.03743929  0.73343635    -0.06200
N175        N  0.62087322  0.06244038  0.72611866    -0.58700
Mn176      Mn  0.50026543  0.99200080  0.70218390     1.20200
Mn177      Mn  0.58660521  0.99005802  0.78106778     1.10100
Cl178      Cl  0.50160381  0.99218814  0.78022885    -0.86700
C179        C  0.61106179  0.07861883  0.68963268     0.95700
C180        C  0.60843997  0.89956690  0.69114327     0.95500
N181        N  0.05408225  0.22718566  0.45423710    -0.06800
N182        N  0.06843025  0.19626669  0.43080570    -0.59000
N183        N  0.08425807  0.26022218  0.54512608    -0.06500
N184        N  0.11838794  0.25268356  0.57004404    -0.61100
N185        N  0.05482449  0.22949028  0.54569563    -0.06100
N186        N  0.06974577  0.19970303  0.57046206    -0.58900
N187        N  0.08354340  0.25788136  0.45344779    -0.05800
N188        N  0.11716381  0.24916920  0.42892230    -0.61400
C189        C  0.10728334  0.21109716  0.41454746     0.95300
C190        C  0.10892612  0.21527938  0.58610573     0.95100
N191        N  0.05470250  0.38765820  0.54290044    -0.07000
N192        N  0.05652475  0.40939286  0.57669597    -0.59500
N193        N  0.08450398  0.35466283  0.44993986    -0.05100
N194        N  0.10812314  0.35396779  0.41637522    -0.60800
N195        N  0.05423816  0.38512518  0.44905156    -0.07000
N196        N  0.05669924  0.40595250  0.41480148    -0.59800
N197        N  0.08495740  0.35717169  0.54373514    -0.04800
N198        N  0.10791297  0.35742803  0.57801861    -0.60900
Mn199      Mn  0.08519978  0.30776997  0.49805372     1.18400
C200        C  0.09020407  0.39036964  0.59820579     0.97400
C201        C  0.09074127  0.38632300  0.39481695     0.98100
N202        N  0.94245896  0.23088372  0.54485308    -0.07100
N203        N  0.92534144  0.20011508  0.56658595    -0.63400
N204        N  0.91337761  0.26073852  0.45322777    -0.05900
N205        N  0.87761790  0.25209592  0.43077222    -0.64000
N206        N  0.94209869  0.22876545  0.45436572    -0.06600
N207        N  0.92512277  0.19721205  0.43340102    -0.63600
N208        N  0.91384786  0.26297841  0.54448041    -0.05500
N209        N  0.87807111  0.25517130  0.56667746    -0.64300
Mn210      Mn  0.99858198  0.22773557  0.49984463     1.10700
C211        C  0.88559367  0.21622399  0.58069736     0.98700
C212        C  0.88538747  0.21278211  0.41813413     0.98700
N213        N  0.94914983  0.38603105  0.44815694    -0.06600
N214        N  0.95003347  0.40327868  0.41200638    -0.62000
N215        N  0.91782545  0.36061407  0.54286880    -0.05900
N216        N  0.89580953  0.36119913  0.57719831    -0.58700
N217        N  0.94987712  0.38884971  0.54293038    -0.07200
N218        N  0.95081455  0.40868411  0.57783596    -0.61500
N219        N  0.91715375  0.35778590  0.44956707    -0.06200
N220        N  0.89529508  0.35571084  0.41482567    -0.58700
Mn221      Mn  0.00177263  0.38897918  0.49568591     1.20200
Mn222      Mn  0.91475027  0.31123353  0.49758054     1.10100
Cl223      Cl  0.00005540  0.30862810  0.49783437    -0.86700
C224        C  0.91582959  0.38439650  0.39171977     0.95700
C225        C  0.91637430  0.39148471  0.59860711     0.95500
N226        N  0.05377321  0.60372243  0.44940953    -0.06800
N227        N  0.05389836  0.58448450  0.41426382    -0.59000
N228        N  0.08340441  0.63367811  0.54367774    -0.06500
N229        N  0.10414990  0.63567352  0.57891813    -0.61100
N230        N  0.05178767  0.60503916  0.54401072    -0.06100
N231        N  0.04984586  0.58752116  0.57998535    -0.58900
N232        N  0.08533063  0.63236502  0.45051031    -0.05800
N233        N  0.10804438  0.63277455  0.41652052    -0.61400
C234        C  0.08838665  0.60255839  0.39435007     0.95300
C235        C  0.08318166  0.60657137  0.60115272     0.95100
N236        N  0.05537062  0.76186891  0.54080172    -0.07000
N237        N  0.07010738  0.79302197  0.56351941    -0.59500
N238        N  0.08627490  0.72931016  0.45027005    -0.05100
N239        N  0.12105800  0.73655906  0.42679085    -0.60800
N240        N  0.05717244  0.76099043  0.44967481    -0.07000
N241        N  0.07300191  0.79111607  0.42635633    -0.59800
N242        N  0.08515823  0.73075717  0.54174090    -0.04800
N243        N  0.11967183  0.73967493  0.56561418    -0.60900
Mn244      Mn  0.08599981  0.68091094  0.49657576     1.18400
C245        C  0.10968653  0.77811834  0.57958079     0.97400
C246        C  0.11241683  0.77479237  0.41161951     0.98100
N247        N  0.94754576  0.60303629  0.54058082    -0.07100
N248        N  0.94560585  0.58085984  0.57398522    -0.63400
N249        N  0.91754764  0.63238940  0.44655431    -0.05900
N250        N  0.89326549  0.63036343  0.41301099    -0.64000
N251        N  0.94887640  0.60283059  0.44725443    -0.06600
N252        N  0.94665839  0.58005773  0.41413924    -0.63600
N253        N  0.91642105  0.63273905  0.54045438    -0.05500
N254        N  0.89259547  0.63147088  0.57392124    -0.64300
Mn255      Mn  0.00079442  0.60183193  0.49524247     1.10700
C256        C  0.91093970  0.59869528  0.59444021     0.98700
C257        C  0.91150615  0.59737927  0.39313785     0.98700
N258        N  0.94526162  0.76123114  0.44792160    -0.06600
N259        N  0.93019096  0.79177865  0.42415129    -0.62000
N260        N  0.91507364  0.73029571  0.53895587    -0.05900
N261        N  0.88110169  0.73784423  0.56349071    -0.58700
N262        N  0.94394713  0.76151436  0.53914491    -0.07200
N263        N  0.92888396  0.79153294  0.56330849    -0.61500
N264        N  0.91629855  0.73008816  0.44731428    -0.06200
N265        N  0.88227871  0.73822054  0.42247762    -0.58700
Mn266      Mn  0.00033272  0.76290240  0.49433158     1.20200
Mn267      Mn  0.91533888  0.68106809  0.49328906     1.10100
Cl268      Cl  0.00054639  0.68227238  0.49476058    -0.86700
C269        C  0.89136877  0.77637247  0.40784245     0.95700
C270        C  0.89016825  0.77569205  0.57893232     0.95500
C271        C  0.72900577  0.79259136  0.69467979    -0.18500
C272        C  0.77126420  0.77780875  0.68140087    -0.20700
C273        C  0.79251058  0.79657917  0.64846667     0.19900
C274        C  0.77094882  0.83058383  0.62869546    -0.03600
C275        C  0.72765615  0.84473954  0.64140564    -0.06700
C276        C  0.70687952  0.82593427  0.67484929     0.20200
C277        C  0.70546082  0.87802669  0.62098610     0.18400
C278        C  0.72698082  0.89701080  0.58829138    -0.18200
C279        C  0.77002260  0.88320657  0.57589860    -0.20400
C280        C  0.79227743  0.84998196  0.59580514     0.19900
C281        C  0.83455086  0.83468487  0.58238666    -0.33400
C282        C  0.85487191  0.79943510  0.60061333     0.00600
C283        C  0.83404116  0.78093245  0.63395575    -0.24800
C284        C  0.66516419  0.84179992  0.68874033    -0.29300
C285        C  0.64339345  0.87559596  0.66916925     0.06200
C286        C  0.66304241  0.89280929  0.63463056    -0.28000
H287        H  0.71352048  0.77778711  0.72035716     0.11000
H288        H  0.78732267  0.75164951  0.69688481     0.12100
H289        H  0.71062967  0.92276177  0.57242843     0.11200
H290        H  0.78575079  0.89831456  0.55047226     0.10400
H291        H  0.84986896  0.84810052  0.55586051     0.15800
H292        H  0.84922915  0.75314204  0.64739494     0.11700
H293        H  0.65060248  0.82922811  0.71600575     0.14600
H294        H  0.64712305  0.91979761  0.62037532     0.14300
C295        C  0.28231378  0.88463183  0.57913323    -0.18500
C296        C  0.24015472  0.87057496  0.56493542    -0.20700
C297        C  0.21252474  0.84589652  0.58941079     0.19900
C298        C  0.22745089  0.83541315  0.62866743    -0.03600
C299        C  0.27000605  0.84953603  0.64295109    -0.06700
C300        C  0.29768825  0.87423932  0.61805802     0.20200
C301        C  0.28463192  0.83921084  0.68228335     0.18400
C302        C  0.25693586  0.81480274  0.70689873    -0.18200
C303        C  0.21521493  0.80021250  0.69251954    -0.20400
C304        C  0.20023644  0.81017353  0.65343170     0.19900
C305        C  0.15936316  0.79409669  0.63816254    -0.33400
C306        C  0.14493283  0.80362090  0.59883834     0.00600
C307        C  0.17106400  0.83020618  0.57487357    -0.24800
C308        C  0.33941207  0.88924341  0.63306843    -0.29300
C309        C  0.35309035  0.88039304  0.67285011     0.06200
C310        C  0.32599588  0.85460767  0.69684091    -0.28000
H311        H  0.30286842  0.90373046  0.55966446     0.11000
H312        H  0.22928437  0.87879141  0.53466456     0.12100
H313        H  0.26756829  0.80694351  0.73730335     0.11200
H314        H  0.19472352  0.78099513  0.71194047     0.10400
H315        H  0.13972558  0.77270427  0.65616440     0.15800
H316        H  0.16053985  0.83640215  0.54404365     0.11700
H317        H  0.35958486  0.90999438  0.61486964     0.14600
H318        H  0.33620109  0.84818625  0.72772290     0.14300
C319        C  0.75541001  0.21490912  0.67233908    -0.18500
C320        C  0.71486623  0.19726065  0.68547653    -0.20700
C321        C  0.69972690  0.15941199  0.66919042     0.19900
C322        C  0.72569864  0.13914053  0.63927109    -0.03600
C323        C  0.76725834  0.15650750  0.62665808    -0.06700
C324        C  0.78191420  0.19472542  0.64310972     0.20200
C325        C  0.79397267  0.13580091  0.59749702     0.18400
C326        C  0.77849683  0.09812063  0.58094979    -0.18200
C327        C  0.73720509  0.08101255  0.59330308    -0.20400
C328        C  0.71057444  0.10117976  0.62251938     0.19900
C329        C  0.66999797  0.08339581  0.63636328    -0.33400
C330        C  0.64509035  0.10266650  0.66732837     0.00600
C331        C  0.65993259  0.14078175  0.68330696    -0.24800
C332        C  0.82227754  0.21260287  0.62943586    -0.29300
C333        C  0.84889892  0.19251903  0.60015218     0.06200
C334        C  0.83501796  0.15370536  0.58476430    -0.28000
H335        H  0.76616750  0.24430512  0.68521215     0.11000
H336        H  0.69535167  0.21322327  0.70844402     0.12100
H337        H  0.79830808  0.08188337  0.55836135     0.11200
H338        H  0.72627026  0.05178086  0.58021002     0.10400
H339        H  0.65940739  0.05326467  0.62500789     0.15800
H340        H  0.64139776  0.15503582  0.70792409     0.11700
H341        H  0.83251408  0.24284219  0.64081622     0.14600
H342        H  0.85474040  0.13871387  0.56131995     0.14300
C343        C  0.26645464  0.08770090  0.59505527    -0.18500
C344        C  0.22319150  0.10265203  0.58386678    -0.20700
C345        C  0.20419020  0.13781593  0.60287763     0.19900
C346        C  0.22902358  0.15801348  0.63365788    -0.03600
C347        C  0.27253738  0.14269959  0.64519285    -0.06700
C348        C  0.29144626  0.10747335  0.62563734     0.20200
C349        C  0.29683053  0.16230673  0.67662128     0.18400
C350        C  0.27791936  0.19755460  0.69557961    -0.18200
C351        C  0.23543931  0.21346174  0.68334809    -0.20400
C352        C  0.21073197  0.19392328  0.65244728     0.19900
C353        C  0.16890586  0.21054771  0.63892490    -0.33400
C354        C  0.14458538  0.19119296  0.60759363     0.00600
C355        C  0.16169429  0.15415747  0.59051768    -0.24800
C356        C  0.33416850  0.09168050  0.63808510    -0.29300
C357        C  0.35740459  0.10985290  0.67065756     0.06200
C358        C  0.33881554  0.14541442  0.68945646    -0.28000
H359        H  0.28027260  0.06047096  0.57991530     0.11000
H360        H  0.20474380  0.08690436  0.56004255     0.12100
H361        H  0.29609317  0.21297825  0.71973672     0.11200
H362        H  0.22189992  0.24106875  0.69806778     0.10400
H363        H  0.15617408  0.23965939  0.65145044     0.15800
H364        H  0.14369375  0.14000389  0.56547090     0.11700
H365        H  0.34763337  0.06333876  0.62460172     0.14600
H366        H  0.35610958  0.15868130  0.71535923     0.14300
C367        C  0.73746077  0.90757599  0.39824520    -0.18500
C368        C  0.78125572  0.89280695  0.40794399    -0.20700
C369        C  0.79814089  0.85578860  0.39066686     0.19900
C370        C  0.77073957  0.83373850  0.36294243    -0.03600
C371        C  0.72655915  0.84851196  0.35330671    -0.06700
C372        C  0.70974497  0.88553525  0.37117102     0.20200
C373        C  0.69947846  0.82651628  0.32533174     0.18400
C374        C  0.71655572  0.78998041  0.30743631    -0.18200
C375        C  0.75993754  0.77490350  0.31758521    -0.20400
C376        C  0.78710665  0.79640949  0.34542243     0.19900
C377        C  0.82946981  0.78015329  0.35744185    -0.33400
C378        C  0.85584774  0.80067534  0.38657505     0.00600
C379        C  0.84095245  0.83930439  0.40199405    -0.24800
C380        C  0.66636985  0.90077257  0.36018122    -0.29300
C381        C  0.64035436  0.87987930  0.33098162     0.06200
C382        C  0.65661538  0.84244417  0.31433686    -0.28000
H383        H  0.72528156  0.93628035  0.41189708     0.11000
H384        H  0.80175815  0.91012892  0.42927666     0.12100
H385        H  0.69630554  0.77300205  0.28564334     0.11200
H386        H  0.77214283  0.74624741  0.30384750     0.10400
H387        H  0.84079616  0.75008675  0.34599845     0.15800
H388        H  0.86083077  0.85464323  0.42518819     0.11700
H389        H  0.65453060  0.93065193  0.37165101     0.14600
H390        H  0.63713388  0.82731323  0.29071716     0.14300
C391        C  0.26831942  0.90133238  0.40051616    -0.18500
C392        C  0.22612392  0.88630175  0.41283880    -0.20700
C393        C  0.20730870  0.85084709  0.39460764     0.19900
C394        C  0.23154141  0.83017221  0.36378364    -0.03600
C395        C  0.27393531  0.84558345  0.35107087    -0.06700
C396        C  0.29239615  0.88136347  0.36954787     0.20200
C397        C  0.29739975  0.82565280  0.31938018     0.18400
C398        C  0.27912522  0.78967005  0.30171678    -0.18200
C399        C  0.23780790  0.77371813  0.31509513    -0.20400
C400        C  0.21360815  0.79390557  0.34586409     0.19900
C401        C  0.17245329  0.77780741  0.35981220    -0.33400
C402        C  0.14836170  0.79792216  0.39076933     0.00600
C403        C  0.16545511  0.83492245  0.40749486    -0.24800
C404        C  0.33366344  0.89747618  0.35565593    -0.29300
C405        C  0.35576192  0.87911532  0.32267187     0.06200
C406        C  0.33780799  0.84295579  0.30498392    -0.28000
H407        H  0.28190559  0.92889828  0.41494224     0.11000
H408        H  0.20825432  0.90236191  0.43676526     0.12100
H409        H  0.29676287  0.77387521  0.27750162     0.11200
H410        H  0.22461223  0.74571380  0.30117094     0.10400
H411        H  0.15984588  0.74869928  0.34760916     0.15800
H412        H  0.14778649  0.84963156  0.43234491     0.11700
H413        H  0.34682093  0.92606742  0.36850029     0.14600
H414        H  0.35440793  0.82931962  0.27900518     0.14300
C415        C  0.72359652  0.18772378  0.30250085    -0.18500
C416        C  0.76551063  0.20311888  0.31543287    -0.20700
C417        C  0.78635070  0.18756654  0.35059803     0.19900
C418        C  0.76461276  0.15633106  0.37316672    -0.03600
C419        C  0.72179072  0.14128542  0.36045502    -0.06700
C420        C  0.70155847  0.15683563  0.32472468     0.20200
C421        C  0.69970857  0.11015318  0.38294844     0.18400
C422        C  0.72062142  0.09479685  0.41827388    -0.18200
C423        C  0.76305425  0.10980468  0.43095117    -0.20400
C424        C  0.78549505  0.14039927  0.40850822     0.19900
C425        C  0.82774062  0.15626612  0.42127343    -0.33400
C426        C  0.84865812  0.18835187  0.39949055     0.00600
C427        C  0.82792136  0.20359339  0.36414771    -0.24800
C428        C  0.66062462  0.13999005  0.31080129    -0.29300
C429        C  0.63935498  0.10776953  0.33191125     0.06200
C430        C  0.65823202  0.09375172  0.36867088    -0.28000
H431        H  0.70849506  0.19986361  0.27496608     0.11000
H432        H  0.78171208  0.22714027  0.29783532     0.12100
H433        H  0.70434520  0.07087965  0.43593433     0.11200
H434        H  0.77834810  0.09743462  0.45833341     0.10400
H435        H  0.84293835  0.14556436  0.44935961     0.15800
H436        H  0.84347208  0.22909431  0.34800889     0.11700
H437        H  0.64654564  0.15021727  0.28208486     0.14600
H438        H  0.64262133  0.06803709  0.38439840     0.14300
C439        C  0.22229634  0.20259852  0.30927801    -0.18500
C440        C  0.26402711  0.18709756  0.29557292    -0.20700
C441        C  0.28729184  0.15548909  0.31693486     0.19900
C442        C  0.26848090  0.13936400  0.35255036    -0.03600
C443        C  0.22575695  0.15427397  0.36582979    -0.06700
C444        C  0.20277822  0.18625936  0.34420698     0.20200
C445        C  0.20631525  0.13756158  0.40095238     0.18400
C446        C  0.23007991  0.10649664  0.42270002    -0.18200
C447        C  0.27254775  0.09184687  0.40963147    -0.20400
C448        C  0.29199907  0.10791134  0.37450796     0.19900
C449        C  0.33363476  0.09205513  0.36007364    -0.33400
C450        C  0.35112596  0.10656319  0.32347596     0.00600
C451        C  0.32822758  0.13870773  0.30250818    -0.24800
C452        C  0.16144830  0.20231023  0.35864006    -0.29300
C453        C  0.14224213  0.18621728  0.39383057     0.06200
C454        C  0.16427079  0.15328597  0.41443145    -0.28000
H455        H  0.20518502  0.22727508  0.29245471     0.11000
H456        H  0.27809776  0.19981036  0.26820760     0.12100
H457        H  0.21587349  0.09359952  0.44992503     0.11200
H458        H  0.29000883  0.06766491  0.42682901     0.10400
H459        H  0.35066947  0.06647181  0.37568482     0.15800
H460        H  0.34142044  0.14938843  0.27395480     0.11700
H461        H  0.14510987  0.22860982  0.34353462     0.14600
H462        H  0.15032757  0.14206127  0.44248008     0.14300
C463        C  0.57349580  0.75916475  0.05926991    -0.18500
C464        C  0.58266576  0.71680180  0.05224394    -0.20700
C465        C  0.61310267  0.69451179  0.07726803     0.19900
C466        C  0.63428101  0.71520855  0.10986460    -0.03600
C467        C  0.62441708  0.75787025  0.11730390    -0.06700
C468        C  0.59371195  0.77986818  0.09193838     0.20200
C469        C  0.64602730  0.77870742  0.14953427     0.18400
C470        C  0.67744417  0.75676218  0.17392210    -0.18200
C471        C  0.68783141  0.71474846  0.16611945    -0.20400
C472        C  0.66657116  0.69373950  0.13410559     0.19900
C473        C  0.67875769  0.65236239  0.12460092    -0.33400
C474        C  0.65862687  0.63187577  0.09162984     0.00600
C475        C  0.62485102  0.65270644  0.06879823    -0.24800
C476        C  0.58404939  0.82224541  0.09941482    -0.29300
C477        C  0.60489188  0.84316111  0.13180970     0.06200
C478        C  0.63606698  0.82113956  0.15662247    -0.28000
H479        H  0.55109377  0.77596511  0.03874046     0.11000
H480        H  0.56669888  0.70171740  0.02666627     0.12100
H481        H  0.69442494  0.77224211  0.19875665     0.11200
H482        H  0.71285833  0.69878151  0.18491132     0.10400
H483        H  0.70592708  0.63682991  0.14135051     0.15800
H484        H  0.61075675  0.63765493  0.04232085     0.11700
H485        H  0.56004431  0.83887441  0.08010611     0.14600
H486        H  0.65237761  0.83691826  0.18164537     0.14300
C487        C  0.57686732  0.27015157  0.05125148    -0.18500
C488        C  0.56925694  0.22764544  0.05778518    -0.20700
C489        C  0.58712593  0.20763080  0.09213303     0.19900
C490        C  0.61291148  0.23073539  0.12020329    -0.03600
C491        C  0.62108812  0.27353603  0.11331765    -0.06700
C492        C  0.60330773  0.29323824  0.07844885     0.20200
C493        C  0.64884227  0.29605803  0.14032779     0.18400
C494        C  0.66647256  0.27614686  0.17484337    -0.18200
C495        C  0.65771947  0.23396122  0.18201469    -0.20400
C496        C  0.63164080  0.21083202  0.15456710     0.19900
C497        C  0.62439982  0.16807922  0.16067528    -0.33400
C498        C  0.59858935  0.14487026  0.13292617     0.00600
C499        C  0.57999467  0.16489889  0.09874327    -0.24800
C500        C  0.61499016  0.33473970  0.06995666    -0.29300
C501        C  0.64541843  0.35616424  0.09519310     0.06200
C502        C  0.66099088  0.33716047  0.13094316    -0.28000
H503        H  0.56291376  0.28480078  0.02447149     0.11000
H504        H  0.54984699  0.21029530  0.03568867     0.12100
H505        H  0.68780290  0.29299148  0.19590301     0.11200
H506        H  0.67213154  0.21919146  0.20863211     0.10400
H507        H  0.63857206  0.15297381  0.18726414     0.15800
H508        H  0.55992395  0.14725926  0.07730352     0.11700
H509        H  0.60438753  0.34875331  0.04159800     0.14600
H510        H  0.68558388  0.35319341  0.14972118     0.14300
C511        C  0.66695135  0.75283769  0.81172192    -0.18500
C512        C  0.67832018  0.71069633  0.81734007    -0.20700
C513        C  0.65670637  0.68719217  0.84706584     0.19900
C514        C  0.62153650  0.70570385  0.86986961    -0.03600
C515        C  0.61050130  0.74849364  0.86455308    -0.06700
C516        C  0.63401039  0.77224959  0.83588743     0.20200
C517        C  0.57766640  0.76793695  0.88927294     0.18400
C518        C  0.55496162  0.74391628  0.91797315    -0.18200
C519        C  0.56546884  0.70141467  0.92297333    -0.20400
C520        C  0.59953660  0.68224360  0.89979499     0.19900
C521        C  0.61466726  0.64126297  0.90826617    -0.33400
C522        C  0.65261709  0.62433445  0.88827643     0.00600
C523        C  0.67211428  0.64669283  0.85656796    -0.24800
C524        C  0.62526374  0.81525983  0.83266031    -0.29300
C525        C  0.59345440  0.83526222  0.85780797     0.06200
C526        C  0.56919877  0.81121643  0.88567644    -0.28000
H527        H  0.68504770  0.77064287  0.78940706     0.11000
H528        H  0.70514128  0.69688147  0.79937335     0.12100
H529        H  0.53022867  0.75836653  0.93755790     0.11200
H530        H  0.54826650  0.68399407  0.94615763     0.10400
H531        H  0.60015051  0.62436866  0.93325163     0.15800
H532        H  0.70163172  0.63377396  0.84143529     0.11700
H533        H  0.64380327  0.83328765  0.81074517     0.14600
H534        H  0.54418844  0.82618929  0.90481043     0.14300
C535        C  0.55970534  0.23171785  0.92674329    -0.18500
C536        C  0.56764794  0.27447834  0.93150587    -0.20700
C537        C  0.59793810  0.29518843  0.90616201     0.19900
C538        C  0.61862968  0.27298673  0.87435982    -0.03600
C539        C  0.61019865  0.22992970  0.86925247    -0.06700
C540        C  0.58113900  0.20903891  0.89597693     0.20200
C541        C  0.63207316  0.20753994  0.83824073     0.18400
C542        C  0.66108321  0.22852083  0.81193651    -0.18200
C543        C  0.66992517  0.27097805  0.81734250    -0.20400
C544        C  0.64960734  0.29325079  0.84894049     0.19900
C545        C  0.66232009  0.33442953  0.85740731    -0.33400
C546        C  0.64450127  0.35560682  0.89086186     0.00600
C547        C  0.61053463  0.33669890  0.91385962    -0.24800
C548        C  0.57445166  0.16582903  0.89170339    -0.29300
C549        C  0.59664893  0.14321603  0.86113896     0.06200
C550        C  0.62515920  0.16445585  0.83441045    -0.28000
H551        H  0.53743535  0.21620496  0.94758534     0.11000
H552        H  0.55088948  0.29119105  0.95558024     0.12100
H553        H  0.67783199  0.21184081  0.78776091     0.11200
H554        H  0.69361476  0.28612865  0.79744498     0.10400
H555        H  0.68919483  0.34870880  0.84021580     0.15800
H556        H  0.59775454  0.35252622  0.94038246     0.11700
H557        H  0.55203948  0.14983651  0.91216666     0.14600
H558        H  0.64202111  0.14746319  0.81047457     0.14300
C559        C  0.83869210  0.63718345  0.72242413    -0.18500
C560        C  0.83465162  0.63233352  0.76401829    -0.20700
C561        C  0.85820638  0.60003599  0.78409785     0.19900
C562        C  0.88583162  0.57207569  0.76209582    -0.03600
C563        C  0.88953375  0.57668867  0.72000744    -0.06700
C564        C  0.86613924  0.60965437  0.70021114     0.20200
C565        C  0.91750868  0.54902874  0.69793368     0.18400
C566        C  0.94157526  0.51709335  0.71819096    -0.18200
C567        C  0.93827553  0.51291294  0.76000929    -0.20400
C568        C  0.91022159  0.53993701  0.78220048     0.19900
C569        C  0.90615939  0.53551886  0.82411106    -0.33400
C570        C  0.87794486  0.56290791  0.84604620     0.00600
C571        C  0.85445680  0.59524045  0.82580174    -0.24800
C572        C  0.87159863  0.61532021  0.65874807    -0.29300
C573        C  0.90060137  0.58883500  0.63680133     0.06200
C574        C  0.92280855  0.55524636  0.65642907    -0.28000
H575        H  0.82060546  0.66269136  0.70766202     0.11000
H576        H  0.81330258  0.65403775  0.78053879     0.12100
H577        H  0.96391871  0.49612372  0.70184484     0.11200
H578        H  0.95827600  0.48908487  0.77519778     0.10400
H579        H  0.92424641  0.51037040  0.83946865     0.15800
H580        H  0.83269671  0.61649796  0.84246279     0.11700
H581        H  0.85452475  0.64134301  0.64386672     0.14600
H582        H  0.94543899  0.53481860  0.63971755     0.14300
C583        C  0.94106270  0.51706147  0.26884879    -0.18500
C584        C  0.93718805  0.51371684  0.22696841    -0.20700
C585        C  0.90684686  0.53958188  0.20535153     0.19900
C586        C  0.87990414  0.56908026  0.22613106    -0.03600
C587        C  0.88451302  0.57315846  0.26828783    -0.06700
C588        C  0.91567697  0.54738406  0.28968250     0.20200
C589        C  0.85901422  0.60394466  0.28879435     0.18400
C590        C  0.82772292  0.62906777  0.26734139    -0.18200
C591        C  0.82270909  0.62463109  0.22565906    -0.20400
C592        C  0.84918659  0.59524444  0.20469774     0.19900
C593        C  0.84577245  0.59183899  0.16267305    -0.33400
C594        C  0.87284740  0.56277622  0.14170344     0.00600
C595        C  0.90326379  0.53669845  0.16330074    -0.24800
C596        C  0.92283502  0.55404959  0.33103323    -0.29300
C597        C  0.89930040  0.58622948  0.35118327     0.06200
C598        C  0.86643341  0.61013317  0.33009741    -0.28000
H599        H  0.96542550  0.49727640  0.28471627     0.11000
H600        H  0.95872964  0.49165542  0.21127670     0.12100
H601        H  0.80765968  0.65265824  0.28271059     0.11200
H602        H  0.79869297  0.64471886  0.20971261     0.10400
H603        H  0.82190044  0.61174322  0.14632446     0.15800
H604        H  0.92389261  0.51385880  0.14744839     0.11700
H605        H  0.94809769  0.53537120  0.34708968     0.14600
H606        H  0.84785803  0.63475485  0.34545515     0.14300
C607        C  0.97614446  0.40785470  0.73660065    -0.18500
C608        C  0.96990171  0.40627704  0.77822310    -0.20700
C609        C  0.92656513  0.39930339  0.79394186     0.19900
C610        C  0.88961384  0.39217900  0.76751168    -0.03600
C611        C  0.89595172  0.39416546  0.72556452    -0.06700
C612        C  0.93933927  0.40276371  0.71003087     0.20200
C613        C  0.85897898  0.38705433  0.69920512     0.18400
C614        C  0.81615489  0.37776699  0.71488854    -0.18200
C615        C  0.80982269  0.37592456  0.75647063    -0.20400
C616        C  0.84624339  0.38329796  0.78297520     0.19900
C617        C  0.83980393  0.38287257  0.82465392    -0.33400
C618        C  0.87583918  0.39240109  0.85094114     0.00600
C619        C  0.91927756  0.39999206  0.83553381    -0.24800
C620        C  0.94535060  0.40487712  0.66821980    -0.29300
C621        C  0.90873465  0.39698797  0.64195030     0.06200
C622        C  0.86570678  0.38832860  0.65760448    -0.28000
H623        H  0.00969379  0.41301423  0.72512720     0.11000
H624        H  0.99880273  0.41114609  0.79807773     0.12100
H625        H  0.78753935  0.37191989  0.69497867     0.11200
H626        H  0.77636558  0.36896004  0.76790873     0.10400
H627        H  0.80618294  0.37731484  0.83651903     0.15800
H628        H  0.94711872  0.40723781  0.85589847     0.11700
H629        H  0.97886555  0.41054976  0.65616872     0.14600
H630        H  0.83764390  0.38166994  0.63728015     0.14300
C631        C  0.81534659  0.35655908  0.22973408    -0.18500
C632        C  0.82124445  0.35691211  0.27156189    -0.20700
C633        C  0.86201988  0.37101117  0.28880131     0.19900
C634        C  0.89766076  0.38381254  0.26367539    -0.03600
C635        C  0.89181391  0.38325620  0.22149392    -0.06700
C636        C  0.85017805  0.37021504  0.20450029     0.20200
C637        C  0.92724698  0.39667754  0.19640184     0.18400
C638        C  0.96901821  0.40815841  0.21355354    -0.18200
C639        C  0.97472797  0.40867239  0.25535363    -0.20400
C640        C  0.93899682  0.39757193  0.28066888     0.19900
C641        C  0.94403068  0.39959773  0.32263959    -0.33400
C642        C  0.90864571  0.38688594  0.34780279     0.00600
C643        C  0.86787775  0.37238322  0.33069595    -0.24800
C644        C  0.84354392  0.37250899  0.16271254    -0.29300
C645        C  0.87755370  0.38873702  0.13791749     0.06200
C646        C  0.91974365  0.39967891  0.15478217    -0.28000
H647        H  0.78326905  0.34622560  0.21714409     0.11000
H648        H  0.79370781  0.34660780  0.29044744     0.12100
H649        H  0.99685637  0.41788922  0.19471223     0.11200
H650        H  0.00685634  0.41825685  0.26796541     0.10400
H651        H  0.97595150  0.40983573  0.33567993     0.15800
H652        H  0.84076241  0.36199690  0.35005027     0.11700
H653        H  0.81097122  0.36392245  0.14980590     0.14600
H654        H  0.94620287  0.41178662  0.13565951     0.14300
C655        C  0.43388190  0.75519718  0.93223276    -0.18500
C656        C  0.42565694  0.71254558  0.93687256    -0.20700
C657        C  0.39778987  0.69143192  0.90927579     0.19900
C658        C  0.37892031  0.71330382  0.87606818    -0.03600
C659        C  0.38782652  0.75625509  0.87106246    -0.06700
C660        C  0.41533451  0.77731380  0.89939253     0.20200
C661        C  0.36795932  0.77839844  0.83851433     0.18400
C662        C  0.33998665  0.75732289  0.81092910    -0.18200
C663        C  0.33046291  0.71497543  0.81631196    -0.20400
C664        C  0.34919718  0.69285085  0.84911118     0.19900
C665        C  0.33613415  0.65165775  0.85716548    -0.33400
C666        C  0.35292051  0.63059667  0.89142644     0.00600
C667        C  0.38549892  0.64983385  0.91614387    -0.24800
C668        C  0.42330130  0.82020401  0.89471688    -0.29300
C669        C  0.40366270  0.84247843  0.86234340     0.06200
C670        C  0.37593698  0.82131242  0.83441558    -0.28000
H671        H  0.45412619  0.77108133  0.95476553     0.11000
H672        H  0.43997121  0.69634949  0.96275581     0.12100
H673        H  0.32469995  0.77381842  0.78564565     0.11200
H674        H  0.30764427  0.69975826  0.79530348     0.10400
H675        H  0.31003915  0.63720660  0.83876733     0.15800
H676        H  0.39717405  0.63413446  0.94334941     0.11700
H677        H  0.44474509  0.83624421  0.91629727     0.14600
H678        H  0.36080517  0.83815033  0.80923008     0.14300
C679        C  0.34770564  0.23515924  0.81278027    -0.18500
C680        C  0.33545482  0.27678846  0.82001693    -0.20700
C681        C  0.35099963  0.29720804  0.85477358     0.19900
C682        C  0.38045856  0.27589395  0.88186280    -0.03600
C683        C  0.39238831  0.23362936  0.87478031    -0.06700
C684        C  0.37534547  0.21310959  0.84035215     0.20200
C685        C  0.41993213  0.21152644  0.90283358     0.18400
C686        C  0.43602681  0.23224874  0.93728230    -0.18200
C687        C  0.42447628  0.27421086  0.94416702    -0.20400
C688        C  0.39619883  0.29616405  0.91696153     0.19900
C689        C  0.38116943  0.33711564  0.92534378    -0.33400
C690        C  0.34972250  0.35743430  0.89959564     0.00600
C691        C  0.33555123  0.33768662  0.86403206    -0.24800
C692        C  0.38512211  0.17059603  0.83458909    -0.29300
C693        C  0.41167571  0.14798942  0.86276866     0.06200
C694        C  0.42976784  0.16888321  0.89646369    -0.28000
H695        H  0.33461985  0.21985550  0.78609821     0.11000
H696        H  0.31298993  0.29273595  0.79884913     0.12100
H697        H  0.45672136  0.21574533  0.95940119     0.11200
H698        H  0.43675946  0.28921224  0.97129003     0.10400
H699        H  0.39091438  0.35182502  0.95348079     0.15800
H700        H  0.31045627  0.35298762  0.84475829     0.11700
H701        H  0.37154763  0.15498310  0.80821519     0.14600
H702        H  0.45060697  0.15180080  0.91811308     0.14300
C703        C  0.34803209  0.75474707  0.18135162    -0.18500
C704        C  0.33721327  0.71295700  0.17442198    -0.20700
C705        C  0.35732445  0.69088349  0.14260037     0.19900
C706        C  0.39020951  0.71050008  0.11862092    -0.03600
C707        C  0.40063039  0.75294649  0.12525927    -0.06700
C708        C  0.37876630  0.77527384  0.15631015     0.20200
C709        C  0.43105836  0.77356065  0.09955694     0.18400
C710        C  0.45184549  0.75110219  0.06831231    -0.18200
C711        C  0.44199540  0.70891596  0.06200858    -0.20400
C712        C  0.41041332  0.68856254  0.08638106     0.19900
C713        C  0.39582132  0.64797381  0.07706945    -0.33400
C714        C  0.36027302  0.62988448  0.09876922     0.00600
C715        C  0.34253273  0.65075897  0.13241169    -0.24800
C716        C  0.38666212  0.81808916  0.16090164    -0.29300
C717        C  0.41586455  0.83924038  0.13471509     0.06200
C718        C  0.43878811  0.81655084  0.10463484    -0.28000
H719        H  0.33120339  0.77142295  0.20548110     0.11000
H720        H  0.31204187  0.69828495  0.19319080     0.12100
H721        H  0.47444479  0.76657863  0.04780764     0.11200
H722        H  0.45777615  0.69267045  0.03708322     0.10400
H723        H  0.40853207  0.63243047  0.05037062     0.15800
H724        H  0.31444263  0.63714702  0.14856028     0.11700
H725        H  0.36933745  0.83510711  0.18456433     0.14600
H726        H  0.46179834  0.83247742  0.08465457     0.14300
C727        C  0.32422469  0.22829058  0.16865811    -0.18500
C728        C  0.31342362  0.27052435  0.16275824    -0.20700
C729        C  0.33809274  0.29454027  0.13539510     0.19900
C730        C  0.37460470  0.27607361  0.11431851    -0.03600
C731        C  0.38516940  0.23320211  0.11993386    -0.06700
C732        C  0.35967219  0.20923536  0.14708222     0.20200
C733        C  0.42045843  0.21413542  0.09771472     0.18400
C734        C  0.44514133  0.23834430  0.07046618    -0.18200
C735        C  0.43492706  0.28087507  0.06509610    -0.20400
C736        C  0.39933497  0.29998084  0.08646211     0.19900
C737        C  0.38612804  0.34168673  0.07863955    -0.33400
C738        C  0.34781280  0.35917551  0.09760745     0.00600
C739        C  0.32508541  0.33592072  0.12695168    -0.24800
C740        C  0.36972112  0.16655430  0.15198081    -0.29300
C741        C  0.40486232  0.14710187  0.13005503     0.06200
C742        C  0.43015495  0.17121450  0.10293458    -0.28000
H743        H  0.30436828  0.21034788  0.18967693     0.11000
H744        H  0.28522810  0.28423097  0.17910424     0.12100
H745        H  0.47190586  0.22419905  0.05280966     0.11200
H746        H  0.45431633  0.29863470  0.04361281     0.10400
H747        H  0.40283953  0.35905189  0.05510179     0.15800
H748        H  0.29497309  0.34909001  0.14096648     0.11700
H749        H  0.35007430  0.14845181  0.17304980     0.14600
H750        H  0.45747237  0.15668283  0.08607177     0.14300
C751        C  0.02153370  0.59527635  0.73826744    -0.18500
C752        C  0.02823940  0.59347718  0.77996930    -0.20700
C753        C  0.07222043  0.59618721  0.79643252     0.19900
C754        C  0.10951142  0.60231880  0.77068939    -0.03600
C755        C  0.10275411  0.60335993  0.72865339    -0.06700
C756        C  0.05862868  0.59880467  0.71232111     0.20200
C757        C  0.14019867  0.60884594  0.70299704     0.18400
C758        C  0.18383301  0.61400033  0.71949001    -0.18200
C759        C  0.19055253  0.61291695  0.76114388    -0.20400
C760        C  0.15370949  0.60674200  0.78689219     0.19900
C761        C  0.16048438  0.60405066  0.82851679    -0.33400
C762        C  0.12392661  0.59580263  0.85407209     0.00600
C763        C  0.07979975  0.59220108  0.83802518    -0.24800
C764        C  0.05248363  0.59813638  0.67038640    -0.29300
C765        C  0.08985080  0.60315630  0.64486132     0.06200
C766        C  0.13337077  0.60914460  0.66128622    -0.28000
H767        H  0.98737868  0.59387549  0.72627813     0.11000
H768        H  0.99910311  0.58965633  0.79929666     0.12100
H769        H  0.21283356  0.61851691  0.70015144     0.11200
H770        H  0.22465154  0.61648843  0.77321440     0.10400
H771        H  0.19462298  0.60648221  0.84087202     0.15800
H772        H  0.05159901  0.58596606  0.85785449     0.11700
H773        H  0.01863487  0.59484220  0.65763188     0.14600
H774        H  0.16196741  0.61384627  0.64147406     0.14300
C775        C  0.03528408  0.58587570  0.21505205    -0.18500
C776        C  0.02865654  0.58684724  0.25662248    -0.20700
C777        C  0.06555991  0.59178500  0.28309155     0.19900
C778        C  0.10932213  0.59853325  0.26752235    -0.03600
C779        C  0.11599440  0.59831760  0.22559317    -0.06700
C780        C  0.07898876  0.59078917  0.19931354     0.20200
C781        C  0.15975630  0.60518679  0.21001228     0.18400
C782        C  0.19620254  0.61300673  0.23639642    -0.18200
C783        C  0.18954186  0.61331433  0.27799825    -0.20400
C784        C  0.14636294  0.60575028  0.29381855     0.19900
C785        C  0.13942277  0.60579993  0.33544247    -0.33400
C786        C  0.09617334  0.59803406  0.35103289     0.00600
C787        C  0.05936896  0.59085773  0.32482778    -0.24800
C788        C  0.08653514  0.58764367  0.15787695    -0.29300
C789        C  0.13024869  0.59340975  0.14236749     0.06200
C790        C  0.16646118  0.60326851  0.16837893    -0.28000
H791        H  0.00634298  0.58093968  0.19526088     0.11000
H792        H  0.99470130  0.58399702  0.26815269     0.12100
H793        H  0.22994878  0.61853613  0.22486217     0.11200
H794        H  0.21821540  0.61926665  0.29781170     0.10400
H795        H  0.16756471  0.61213574  0.35578046     0.15800
H796        H  0.02567223  0.58610754  0.33688093     0.11700
H797        H  0.05857295  0.58022644  0.13770646     0.14600
H798        H  0.20027559  0.60748491  0.15639820     0.14300
C799        C  0.14731725  0.34395284  0.77193125    -0.18500
C800        C  0.14420283  0.33965803  0.73016504    -0.20700
C801        C  0.12489730  0.37171844  0.70653559     0.19900
C802        C  0.10863433  0.40854973  0.72505641    -0.03600
C803        C  0.11130503  0.41267398  0.76728446    -0.06700
C804        C  0.13097757  0.38027318  0.79073081     0.20200
C805        C  0.09436360  0.44914841  0.78600874     0.18400
C806        C  0.07505606  0.48118578  0.76231553    -0.18200
C807        C  0.07267032  0.47726364  0.72038464    -0.20400
C808        C  0.08905379  0.44092934  0.70146653     0.19900
C809        C  0.08429465  0.43550192  0.65968526    -0.33400
C810        C  0.09953631  0.39842374  0.64126069     0.00600
C811        C  0.12067598  0.36712407  0.66478979    -0.24800
C812        C  0.13474190  0.38500986  0.83250019    -0.29300
C813        C  0.11884694  0.42153978  0.85127197     0.06200
C814        C  0.09780718  0.45318249  0.82800016    -0.28000
H815        H  0.16251468  0.31884263  0.78954237     0.11000
H816        H  0.15678004  0.31117942  0.71633750     0.12100
H817        H  0.06166250  0.50919288  0.77626195     0.11200
H818        H  0.05722590  0.50228067  0.70282549     0.10400
H819        H  0.06785259  0.45965918  0.64166667     0.15800
H820        H  0.13229761  0.33835932  0.65083344     0.11700
H821        H  0.15086663  0.36054789  0.85036837     0.14600
H822        H  0.08578135  0.48161471  0.84231940     0.14300
C823        C  0.07697888  0.47328712  0.27256004    -0.18500
C824        C  0.08138782  0.47772397  0.23095864    -0.20700
C825        C  0.10335053  0.44676022  0.20823928     0.19900
C826        C  0.12151487  0.41098870  0.22756843    -0.03600
C827        C  0.11652738  0.40615910  0.26950593    -0.06700
C828        C  0.09374401  0.43730274  0.29201624     0.20200
C829        C  0.13350462  0.36983697  0.28874069     0.18400
C830        C  0.15627468  0.33917862  0.26607980    -0.18200
C831        C  0.16169494  0.34421652  0.22454882    -0.20400
C832        C  0.14409833  0.37983005  0.20494584     0.19900
C833        C  0.14849886  0.38483980  0.16315999    -0.33400
C834        C  0.12991952  0.42026219  0.14374669     0.00600
C835        C  0.10733802  0.45099270  0.16650126    -0.24800
C836        C  0.08654454  0.43119125  0.33324827    -0.29300
C837        C  0.10223538  0.39455809  0.35236881     0.06200
C838        C  0.12650550  0.36441025  0.33010661    -0.28000
H839        H  0.05926590  0.49738733  0.28933831     0.11000
H840        H  0.06704353  0.50505767  0.21637289     0.12100
H841        H  0.16958652  0.31113412  0.28043390     0.11200
H842        H  0.17924479  0.32005364  0.20769873     0.10400
H843        H  0.16622931  0.36119183  0.14576635     0.15800
H844        H  0.09354069  0.47870275  0.15184600     0.11700
H845        H  0.06788886  0.45453734  0.35026941     0.14600
H846        H  0.13862644  0.33602288  0.34465911     0.14300
loop_ 
_geom_bond_atom_site_label_1 
_geom_bond_atom_site_label_2 
_geom_bond_distance 
_geom_bond_site_symmetry_2 
_ccdc_geom_bond_type 
N1            N2   1.329       .  A
N1            N7   1.319       .  A
N1          Mn30   2.236   1_554  S
N2            C9   1.360       .  A
N3            N5   1.320       .  A
N3            N4   1.317       .  A
N3          Mn19   2.196       .  S
N4           C10   1.346       .  A
N5            N6   1.326       .  A
N5          Mn30   2.227       .  S
N6           C10   1.357       .  A
N7            N8   1.313       .  A
N7          Mn19   2.188   1_554  S
N8            C9   1.344       .  A
C9          C738   1.475       .  S
C10         C690   1.473       .  S
N11          N17   1.314       .  A
N11          N12   1.320       .  A
N11         Mn41   2.185       .  S
N12          C20   1.351       .  A
N13          N14   1.321       .  A
N13          N15   1.313       .  A
N13         Mn19   2.193   1_554  S
N14          C21   1.352       .  A
N15          N16   1.319       .  A
N15         Mn41   2.190   1_554  S
N16          C21   1.352       .  A
N17          N18   1.320       .  A
N17         Mn19   2.200       .  S
N18          C20   1.353       .  A
Mn19        Cl43   2.500       .  S
C20         C813   1.474       .  S
C21         C834   1.476       .  S
N22          N23   1.327       .  A
N22          N28   1.319       .  A
N22         Mn30   2.235       .  S
N23          C31   1.359       .  A
N24          N26   1.318       .  A
N24          N25   1.315       .  A
N24         Mn42   2.187   1_554  S
N25          C32   1.345       .  A
N26          N27   1.327       .  A
N26         Mn30   2.231   1_554  S
N27          C32   1.358       .  A
N28          N29   1.314       .  A
N28         Mn42   2.189       .  S
N29          C31   1.345       .  A
Mn30        Cl43   2.589       .  S
C31         C666   1.469       .  S
C32         C714   1.472       .  S
N33          N34   1.318       .  A
N33          N39   1.313       .  A
N33         Mn41   2.182   1_554  S
N34          C44   1.350       .  A
N35          N36   1.318       .  A
N35          N37   1.312       .  A
N35         Mn42   2.195       .  S
N36          C45   1.352       .  A
N37          N38   1.320       .  A
N37         Mn41   2.184       .  S
N38          C45   1.352       .  A
N39          N40   1.320       .  A
N39         Mn42   2.197   1_554  S
N40          C44   1.353       .  A
Mn41        Cl43   2.587       .  S
Mn42        Cl43   2.496       .  S
C44         C789   1.469       .  S
C45         C762   1.469       .  S
N46          N47   1.320       .  A
N46          N52   1.312       .  A
N46         Mn75   2.189   1_554  S
N47          C54   1.353       .  A
N48          N50   1.313       .  A
N48          N49   1.320       .  A
N48         Mn64   2.200       .  S
N49          C55   1.354       .  A
N50          N51   1.317       .  A
N50         Mn75   2.176       .  S
N51          C55   1.349       .  A
N52          N53   1.320       .  A
N52         Mn64   2.198   1_554  S
N53          C54   1.353       .  A
C54         C645   1.474       .  S
C55         C618   1.468       .  S
N56          N62   1.319       .  A
N56          N57   1.328       .  A
N56         Mn86   2.234       .  S
N57          C65   1.359       .  A
N58          N59   1.313       .  A
N58          N60   1.319       .  A
N58         Mn64   2.184   1_554  S
N59          C66   1.343       .  A
N60          N61   1.328       .  A
N60         Mn86   2.237   1_554  S
N61          C66   1.360       .  A
N62          N63   1.314       .  A
N62         Mn64   2.187       .  S
N63          C65   1.345       .  A
Mn64        Cl88   2.493       .  S
C65         C546   1.471       .  S
C66         C501   1.470       .  S
N67          N68   1.322       .  A
N67          N73   1.314       .  A
N67         Mn75   2.194       .  S
N68          C76   1.353       .  A
N69          N71   1.314       .  A
N69          N70   1.321       .  A
N69         Mn87   2.204   1_554  S
N70          C77   1.353       .  A
N71          N72   1.320       .  A
N71         Mn75   2.187   1_554  S
N72          C77   1.351       .  A
N73          N74   1.319       .  A
N73         Mn87   2.197       .  S
N74          C76   1.352       .  A
Mn75        Cl88   2.584       .  S
C76         C570   1.479       .  S
C77         C594   1.480       .  S
N78          N79   1.329       .  A
N78          N84   1.319       .  A
N78         Mn86   2.246   1_554  S
N79          C89   1.362       .  A
N80          N81   1.318       .  A
N80          N82   1.320       .  A
N80         Mn87   2.207       .  S
N81          C90   1.349       .  A
N82          N83   1.326       .  A
N82         Mn86   2.227       .  S
N83          C90   1.357       .  A
N84          N85   1.314       .  A
N84         Mn87   2.180   1_554  S
N85          C89   1.343       .  A
Mn86        Cl88   2.599       .  S
Mn87        Cl88   2.499       .  S
C89         C474   1.475       .  S
C90         C522   1.476       .  S
N91          N92   1.327       .  A
N91          N97   1.319       .  A
N91        Mn120   2.232   1_545  S
N92          C99   1.359       .  A
N93          N95   1.318       .  A
N93          N94   1.317       .  A
N93        Mn109   2.191       .  S
N94         C100   1.346       .  A
N95          N96   1.326       .  A
N95        Mn120   2.235       .  S
N96         C100   1.359       .  A
N97          N98   1.315       .  A
N97        Mn109   2.189   1_545  S
N98          C99   1.346       .  A
C99         C450   1.473       .  S
C100        C405   1.473       .  S
N101        N107   1.314       .  A
N101        N102   1.324       .  A
N101       Mn131   2.204       .  S
N102        C110   1.354       .  A
N103        N104   1.320       .  A
N103        N105   1.314       .  A
N103       Mn109   2.200   1_545  S
N104        C111   1.352       .  A
N105        N106   1.326       .  A
N105       Mn131   2.217   1_545  S
N106        C111   1.357       .  A
N107        N108   1.319       .  A
N107       Mn109   2.194       .  S
N108        C110   1.351       .  A
Mn109      Cl133   2.504       .  S
C110        C717   1.484       .  S
C111        C741   1.490       .  S
N112        N113   1.326       .  A
N112        N118   1.318       .  A
N112       Mn120   2.223       .  S
N113        C121   1.357       .  A
N114        N116   1.319       .  A
N114        N115   1.314       .  A
N114       Mn132   2.187   1_545  S
N115        C122   1.344       .  A
N116        N117   1.329       .  A
N116       Mn120   2.241   1_545  S
N117        C122   1.360       .  A
N118        N119   1.312       .  A
N118       Mn132   2.177       .  S
N119        C121   1.343       .  A
Mn120      Cl133   2.589       .  S
C121        C381   1.461       .  S
C122        C429   1.475       .  S
N123        N124   1.321       .  A
N123        N129   1.313       .  A
N123       Mn131   2.196   1_545  S
N124        C134   1.353       .  A
N125        N126   1.322       .  A
N125        N127   1.313       .  A
N125       Mn132   2.199       .  S
N126        C135   1.353       .  A
N127        N128   1.323       .  A
N127       Mn131   2.208       .  S
N128        C135   1.355       .  A
N129        N130   1.320       .  A
N129       Mn132   2.198   1_545  S
N130        C134   1.353       .  A
Mn131      Cl133   2.584       .  S
Mn132      Cl133   2.500       .  S
C134        C498   1.480       .  S
C135        C477   1.487       .  S
N136        N137   1.325       .  A
N136        N142   1.313       .  A
N136       Mn165   2.210   1_545  S
N137        C144   1.356       .  A
N138        N140   1.313       .  A
N138        N139   1.319       .  A
N138       Mn154   2.190       .  S
N139        C145   1.351       .  A
N140        N141   1.323       .  A
N140       Mn165   2.206       .  S
N141        C145   1.355       .  A
N142        N143   1.319       .  A
N142       Mn154   2.190   1_545  S
N143        C144   1.351       .  A
C144        C693   1.484       .  S
C145        C669   1.482       .  S
N146        N152   1.319       .  A
N146        N147   1.330       .  A
N146       Mn176   2.245       .  S
N147        C155   1.362       .  A
N148        N149   1.314       .  A
N148        N150   1.319       .  A
N148       Mn154   2.179   1_545  S
N149        C156   1.343       .  A
N150        N151   1.328       .  A
N150       Mn176   2.245   1_545  S
N151        C156   1.361       .  A
N152        N153   1.313       .  A
N152       Mn154   2.179       .  S
N153        C155   1.343       .  A
Mn154      Cl178   2.497       .  S
C155        C309   1.477       .  S
C156        C357   1.473       .  S
N157        N158   1.326       .  A
N157        N163   1.314       .  A
N157       Mn165   2.211       .  S
N158        C166   1.357       .  A
N159        N161   1.314       .  A
N159        N160   1.320       .  A
N159       Mn177   2.195   1_545  S
N160        C167   1.352       .  A
N161        N162   1.323       .  A
N161       Mn165   2.205   1_545  S
N162        C167   1.354       .  A
N163        N164   1.319       .  A
N163       Mn177   2.195       .  S
N164        C166   1.350       .  A
Mn165      Cl178   2.588       .  S
C166        C525   1.487       .  S
C167        C549   1.484       .  S
N168        N169   1.328       .  A
N168        N174   1.320       .  A
N168       Mn176   2.242   1_545  S
N169        C179   1.360       .  A
N170        N171   1.314       .  A
N170        N172   1.319       .  A
N170       Mn177   2.183       .  S
N171        C180   1.343       .  A
N172        N173   1.329       .  A
N172       Mn176   2.246       .  S
N173        C180   1.361       .  A
N174        N175   1.316       .  A
N174       Mn177   2.192   1_545  S
N175        C179   1.345       .  A
Mn176      Cl178   2.593       .  S
Mn177      Cl178   2.499       .  S
C179        C330   1.475       .  S
C180        C285   1.474       .  S
N181        N182   1.327       .  A
N181        N187   1.319       .  A
N181       Mn210   2.237   1_455  S
N182        C189   1.359       .  A
N183        N185   1.319       .  A
N183        N184   1.315       .  A
N183       Mn199   2.183       .  S
N184        C190   1.344       .  A
N185        N186   1.327       .  A
N185       Mn210   2.239   1_455  S
N186        C190   1.360       .  A
N187        N188   1.314       .  A
N187       Mn199   2.180       .  S
N188        C189   1.344       .  A
C189        C453   1.469       .  S
C190        C354   1.473       .  S
N191        N197   1.313       .  A
N191        N192   1.322       .  A
N191       Mn221   2.199       .  S
N192        C200   1.354       .  A
N193        N194   1.319       .  A
N193        N195   1.312       .  A
N193       Mn199   2.192       .  S
N194        C201   1.352       .  A
N195        N196   1.322       .  A
N195       Mn221   2.199       .  S
N196        C201   1.355       .  A
N197        N198   1.319       .  A
N197       Mn199   2.193       .  S
N198        C200   1.352       .  A
Mn199      Cl223   2.503       .  S
C200        C810   1.477       .  S
C201        C837   1.478       .  S
N202        N203   1.328       .  A
N202        N208   1.320       .  A
N202       Mn210   2.239       .  S
N203        C211   1.359       .  A
N204        N206   1.319       .  A
N204        N205   1.316       .  A
N204       Mn222   2.189       .  S
N205        C212   1.345       .  A
N206        N207   1.327       .  A
N206       Mn210   2.235       .  S
N207        C212   1.358       .  A
N208        N209   1.317       .  A
N208       Mn222   2.195       .  S
N209        C211   1.346       .  A
Mn210      Cl223   2.592   1_655  S
C211        C333   1.480       .  S
C212        C426   1.473       .  S
N213        N214   1.322       .  A
N213        N219   1.314       .  A
N213       Mn221   2.203   1_655  S
N214        C224   1.354       .  A
N215        N216   1.317       .  A
N215        N217   1.314       .  A
N215       Mn222   2.185       .  S
N216        C225   1.349       .  A
N217        N218   1.323       .  A
N217       Mn221   2.199   1_655  S
N218        C225   1.353       .  A
N219        N220   1.318       .  A
N219       Mn222   2.185       .  S
N220        C224   1.349       .  A
Mn221      Cl223   2.575       .  S
Mn222      Cl223   2.509   1_655  S
C224        C642   1.474       .  S
C225        C621   1.470       .  S
N226        N227   1.320       .  A
N226        N232   1.313       .  A
N226       Mn255   2.190       .  S
N227        C234   1.352       .  A
N228        N230   1.314       .  A
N228        N229   1.317       .  A
N228       Mn244   2.178       .  S
N229        C235   1.348       .  A
N230        N231   1.322       .  A
N230       Mn255   2.200       .  S
N231        C235   1.353       .  A
N232        N233   1.317       .  A
N232       Mn244   2.182       .  S
N233        C234   1.349       .  A
C234        C786   1.466       .  S
C235        C765   1.467       .  S
N236        N242   1.319       .  A
N236        N237   1.326       .  A
N236       Mn266   2.226       .  S
N237        C245   1.357       .  A
N238        N239   1.315       .  A
N238        N240   1.319       .  A
N238       Mn244   2.183       .  S
N239        C246   1.344       .  A
N240        N241   1.328       .  A
N240       Mn266   2.246       .  S
N241        C246   1.361       .  A
N242        N243   1.316       .  A
N242       Mn244   2.191       .  S
N243        C245   1.346       .  A
Mn244      Cl268   2.513       .  S
C245        C306   1.469       .  S
C246        C402   1.476       .  S
N247        N248   1.319       .  A
N247        N253   1.312       .  A
N247       Mn255   2.183   1_655  S
N248        C256   1.351       .  A
N249        N251   1.313       .  A
N249        N250   1.320       .  A
N249       Mn267   2.201       .  S
N250        C257   1.354       .  A
N251        N252   1.322       .  A
N251       Mn255   2.197   1_655  S
N252        C257   1.355       .  A
N253        N254   1.321       .  A
N253       Mn267   2.202       .  S
N254        C256   1.355       .  A
Mn255      Cl268   2.576       .  S
C256        C573   1.477       .  S
C257        C597   1.481       .  S
N258        N259   1.326       .  A
N258        N264   1.319       .  A
N258       Mn266   2.227   1_655  S
N259        C269   1.357       .  A
N260        N261   1.315       .  A
N260        N262   1.320       .  A
N260       Mn267   2.188       .  S
N261        C270   1.345       .  A
N262        N263   1.327       .  A
N262       Mn266   2.240   1_655  S
N263        C270   1.359       .  A
N264        N265   1.314       .  A
N264       Mn267   2.190       .  S
N265        C269   1.346       .  A
Mn266      Cl268   2.582       .  S
Mn267      Cl268   2.506   1_655  S
C269        C378   1.470       .  S
C270        C282   1.473       .  S
C271        C272   1.400       .  A
C271        C276   1.404       .  A
C271        H287   1.083       .  S
C272        C273   1.404       .  A
C272        H288   1.084       .  S
C273        C283   1.404       .  A
C273        C274   1.412       .  A
C274        C280   1.412       .  A
C274        C275   1.414       .  A
C275        C277   1.413       .  A
C275        C276   1.411       .  A
C276        C284   1.404       .  A
C277        C286   1.408       .  A
C277        C278   1.404       .  A
C278        C279   1.401       .  A
C278        H289   1.083       .  S
C279        C280   1.404       .  A
C279        H290   1.084       .  S
C280        C281   1.407       .  A
C281        C282   1.405       .  A
C281        H291   1.084       .  S
C282        C283   1.405       .  A
C283        H292   1.085       .  S
C284        C285   1.406       .  A
C284        H293   1.085       .  S
C285        C286   1.405       .  A
C286        H294   1.084       .  S
C295        C296   1.402       .  A
C295        C300   1.404       .  A
C295        H311   1.083       .  S
C296        C297   1.405       .  A
C296        H312   1.084       .  S
C297        C307   1.406       .  A
C297        C298   1.411       .  A
C298        C304   1.414       .  A
C298        C299   1.414       .  A
C299        C301   1.410       .  A
C299        C300   1.414       .  A
C300        C308   1.410       .  A
C301        C310   1.400       .  A
C301        C302   1.404       .  A
C302        C303   1.398       .  A
C302        H313   1.083       .  S
C303        C304   1.403       .  A
C303        H314   1.084       .  S
C304        C305   1.404       .  A
C305        C306   1.402       .  A
C305        H315   1.085       .  S
C306        C307   1.406       .  A
C307        H316   1.085       .  S
C308        C309   1.406       .  A
C308        H317   1.084       .  S
C309        C310   1.407       .  A
C310        H318   1.085       .  S
C319        C320   1.399       .  A
C319        C324   1.404       .  A
C319        H335   1.084       .  S
C320        C321   1.403       .  A
C320        H336   1.084       .  S
C321        C331   1.404       .  A
C321        C322   1.413       .  A
C322        C328   1.412       .  A
C322        C323   1.416       .  A
C323        C325   1.413       .  A
C323        C324   1.411       .  A
C324        C332   1.403       .  A
C325        C334   1.411       .  A
C325        C326   1.405       .  A
C326        C327   1.403       .  A
C326        H337   1.083       .  S
C327        C328   1.405       .  A
C327        H338   1.084       .  S
C328        C329   1.409       .  A
C329        C330   1.407       .  A
C329        H339   1.084       .  S
C330        C331   1.404       .  A
C331        H340   1.085       .  S
C332        C333   1.405       .  A
C332        H341   1.085       .  S
C333        C334   1.408       .  A
C334        H342   1.084       .  S
C343        C344   1.401       .  A
C343        C348   1.404       .  A
C343        H359   1.083       .  S
C344        C345   1.404       .  A
C344        H360   1.084       .  S
C345        C355   1.406       .  A
C345        C346   1.413       .  A
C346        C352   1.412       .  A
C346        C347   1.414       .  A
C347        C349   1.411       .  A
C347        C348   1.413       .  A
C348        C356   1.407       .  A
C349        C358   1.404       .  A
C349        C350   1.404       .  A
C350        C351   1.400       .  A
C350        H361   1.083       .  S
C351        C352   1.404       .  A
C351        H362   1.084       .  S
C352        C353   1.404       .  A
C353        C354   1.406       .  A
C353        H363   1.085       .  S
C354        C355   1.405       .  A
C355        H364   1.084       .  S
C356        C357   1.405       .  A
C356        H365   1.084       .  S
C357        C358   1.406       .  A
C358        H366   1.085       .  S
C367        C368   1.401       .  A
C367        C372   1.404       .  A
C367        H383   1.084       .  S
C368        C369   1.405       .  A
C368        H384   1.084       .  S
C369        C379   1.407       .  A
C369        C370   1.413       .  A
C370        C376   1.411       .  A
C370        C371   1.411       .  A
C371        C373   1.412       .  A
C371        C372   1.412       .  A
C372        C380   1.405       .  A
C373        C382   1.399       .  A
C373        C374   1.402       .  A
C374        C375   1.397       .  A
C374        H385   1.084       .  S
C375        C376   1.403       .  A
C375        H386   1.084       .  S
C376        C377   1.399       .  A
C377        C378   1.403       .  A
C377        H387   1.085       .  S
C378        C379   1.406       .  A
C379        H388   1.084       .  S
C380        C381   1.405       .  A
C380        H389   1.085       .  S
C381        C382   1.401       .  A
C382        H390   1.085       .  S
C391        C392   1.401       .  A
C391        C396   1.404       .  A
C391        H407   1.084       .  S
C392        C393   1.404       .  A
C392        H408   1.084       .  S
C393        C403   1.408       .  A
C393        C394   1.413       .  A
C394        C400   1.411       .  A
C394        C395   1.415       .  A
C395        C397   1.413       .  A
C395        C396   1.412       .  A
C396        C404   1.406       .  A
C397        C406   1.405       .  A
C397        C398   1.404       .  A
C398        C399   1.400       .  A
C398        H409   1.083       .  S
C399        C400   1.404       .  A
C399        H410   1.084       .  S
C400        C401   1.404       .  A
C401        C402   1.406       .  A
C401        H411   1.085       .  S
C402        C403   1.405       .  A
C403        H412   1.084       .  S
C404        C405   1.405       .  A
C404        H413   1.084       .  S
C405        C406   1.405       .  A
C406        H414   1.085       .  S
C415        C416   1.397       .  A
C415        C420   1.403       .  A
C415        H431   1.083       .  S
C416        C417   1.402       .  A
C416        H432   1.084       .  S
C417        C427   1.402       .  A
C417        C418   1.413       .  A
C418        C424   1.412       .  A
C418        C419   1.415       .  A
C419        C421   1.414       .  A
C419        C420   1.411       .  A
C420        C428   1.400       .  A
C421        C430   1.412       .  A
C421        C422   1.406       .  A
C422        C423   1.404       .  A
C422        H433   1.083       .  S
C423        C424   1.406       .  A
C423        H434   1.084       .  S
C424        C425   1.410       .  A
C425        C426   1.408       .  A
C425        H435   1.084       .  S
C426        C427   1.403       .  A
C427        H436   1.085       .  S
C428        C429   1.404       .  A
C428        H437   1.085       .  S
C429        C430   1.408       .  A
C430        H438   1.084       .  S
C439        C440   1.398       .  A
C439        C444   1.403       .  A
C439        H455   1.084       .  S
C440        C441   1.403       .  A
C440        H456   1.084       .  S
C441        C451   1.401       .  A
C441        C442   1.411       .  A
C442        C448   1.413       .  A
C442        C443   1.413       .  A
C443        C445   1.412       .  A
C443        C444   1.412       .  A
C444        C452   1.402       .  A
C445        C454   1.406       .  A
C445        C446   1.404       .  A
C446        C447   1.401       .  A
C446        H457   1.084       .  S
C447        C448   1.405       .  A
C447        H458   1.083       .  S
C448        C449   1.408       .  A
C449        C450   1.406       .  A
C449        H459   1.084       .  S
C450        C451   1.404       .  A
C451        H460   1.085       .  S
C452        C453   1.404       .  A
C452        H461   1.085       .  S
C453        C454   1.405       .  A
C454        H462   1.085       .  S
C463        C464   1.400       .  A
C463        C468   1.403       .  A
C463        H479   1.082       .  S
C464        C465   1.404       .  A
C464        H480   1.084       .  S
C465        C475   1.408       .  A
C465        C466   1.413       .  A
C466        C472   1.411       .  A
C466        C467   1.415       .  A
C467        C469   1.412       .  A
C467        C468   1.411       .  A
C468        C476   1.406       .  A
C469        C478   1.407       .  A
C469        C470   1.405       .  A
C470        C471   1.401       .  A
C470        H481   1.084       .  S
C471        C472   1.405       .  A
C471        H482   1.084       .  S
C472        C473   1.405       .  A
C473        C474   1.407       .  A
C473        H483   1.085       .  S
C474        C475   1.406       .  A
C475        H484   1.085       .  S
C476        C477   1.407       .  A
C476        H485   1.084       .  S
C477        C478   1.409       .  A
C478        H486   1.084       .  S
C487        C488   1.399       .  A
C487        C492   1.403       .  A
C487        H503   1.081       .  S
C488        C489   1.403       .  A
C488        H504   1.083       .  S
C489        C499   1.404       .  A
C489        C490   1.412       .  A
C490        C496   1.411       .  A
C490        C491   1.413       .  A
C491        C493   1.412       .  A
C491        C492   1.412       .  A
C492        C500   1.406       .  A
C493        C502   1.404       .  A
C493        C494   1.404       .  A
C494        C495   1.399       .  A
C494        H505   1.084       .  S
C495        C496   1.403       .  A
C495        H506   1.083       .  S
C496        C497   1.403       .  A
C497        C498   1.407       .  A
C497        H507   1.084       .  S
C498        C499   1.407       .  A
C499        H508   1.084       .  S
C500        C501   1.406       .  A
C500        H509   1.085       .  S
C501        C502   1.405       .  A
C502        H510   1.085       .  S
C511        C512   1.398       .  A
C511        C516   1.403       .  A
C511        H527   1.083       .  S
C512        C513   1.403       .  A
C512        H528   1.084       .  S
C513        C523   1.403       .  A
C513        C514   1.412       .  A
C514        C520   1.412       .  A
C514        C515   1.415       .  A
C515        C517   1.412       .  A
C515        C516   1.410       .  A
C516        C524   1.402       .  A
C517        C526   1.410       .  A
C517        C518   1.404       .  A
C518        C519   1.401       .  A
C518        H529   1.080       .  S
C519        C520   1.405       .  A
C519        H530   1.084       .  S
C520        C521   1.408       .  A
C521        C522   1.407       .  A
C521        H531   1.084       .  S
C522        C523   1.404       .  A
C523        H532   1.085       .  S
C524        C525   1.408       .  A
C524        H533   1.084       .  S
C525        C526   1.409       .  A
C526        H534   1.084       .  S
C535        C536   1.401       .  A
C535        C540   1.404       .  A
C535        H551   1.082       .  S
C536        C537   1.404       .  A
C536        H552   1.082       .  S
C537        C547   1.407       .  A
C537        C538   1.412       .  A
C538        C544   1.412       .  A
C538        C539   1.414       .  A
C539        C541   1.411       .  A
C539        C540   1.412       .  A
C540        C548   1.407       .  A
C541        C550   1.403       .  A
C541        C542   1.404       .  A
C542        C543   1.399       .  A
C542        H553   1.084       .  S
C543        C544   1.403       .  A
C543        H554   1.084       .  S
C544        C545   1.403       .  A
C545        C546   1.404       .  A
C545        H555   1.085       .  S
C546        C547   1.406       .  A
C547        H556   1.085       .  S
C548        C549   1.408       .  A
C548        H557   1.084       .  S
C549        C550   1.408       .  A
C550        H558   1.084       .  S
C559        C560   1.397       .  A
C559        C564   1.403       .  A
C559        H575   1.084       .  S
C560        C561   1.403       .  A
C560        H576   1.084       .  S
C561        C571   1.399       .  A
C561        C562   1.411       .  A
C562        C568   1.411       .  A
C562        C563   1.411       .  A
C563        C565   1.412       .  A
C563        C564   1.412       .  A
C564        C572   1.400       .  A
C565        C574   1.403       .  A
C565        C566   1.404       .  A
C566        C567   1.400       .  A
C566        H577   1.083       .  S
C567        C568   1.403       .  A
C567        H578   1.080       .  S
C568        C569   1.406       .  A
C569        C570   1.408       .  A
C569        H579   1.084       .  S
C570        C571   1.405       .  A
C571        H580   1.084       .  S
C572        C573   1.404       .  A
C572        H581   1.084       .  S
C573        C574   1.408       .  A
C574        H582   1.084       .  S
C583        C584   1.399       .  A
C583        C588   1.404       .  A
C583        H599   1.083       .  S
C584        C585   1.402       .  A
C584        H600   1.081       .  S
C585        C595   1.403       .  A
C585        C586   1.410       .  A
C586        C592   1.412       .  A
C586        C587   1.412       .  A
C587        C589   1.411       .  A
C587        C588   1.412       .  A
C588        C596   1.405       .  A
C589        C598   1.402       .  A
C589        C590   1.404       .  A
C590        C591   1.399       .  A
C590        H601   1.084       .  S
C591        C592   1.403       .  A
C591        H602   1.084       .  S
C592        C593   1.403       .  A
C593        C594   1.406       .  A
C593        H603   1.084       .  S
C594        C595   1.407       .  A
C595        H604   1.084       .  S
C596        C597   1.407       .  A
C596        H605   1.084       .  S
C597        C598   1.407       .  A
C598        H606   1.084       .  S
C607        C608   1.398       .  A
C607        C612   1.401       .  A
C607        H623   1.076   1_655  S
C608        C609   1.402       .  A
C608        H624   1.084       .  S
C609        C619   1.400       .  A
C609        C610   1.411       .  A
C610        C616   1.412       .  A
C610        C611   1.409       .  A
C611        C613   1.410       .  A
C611        C612   1.411       .  A
C612        C620   1.404       .  A
C613        C622   1.399       .  A
C613        C614   1.403       .  A
C614        C615   1.397       .  A
C614        H625   1.084       .  S
C615        C616   1.402       .  A
C615        H626   1.084       .  S
C616        C617   1.399       .  A
C617        C618   1.403       .  A
C617        H627   1.084       .  S
C618        C619   1.404       .  A
C619        H628   1.085       .  S
C620        C621   1.405       .  A
C620        H629   1.085       .  S
C621        C622   1.403       .  A
C622        H630   1.085       .  S
C631        C632   1.399       .  A
C631        C636   1.404       .  A
C631        H647   1.084       .  S
C632        C633   1.404       .  A
C632        H648   1.084       .  S
C633        C643   1.402       .  A
C633        C634   1.411       .  A
C634        C640   1.411       .  A
C634        C635   1.410       .  A
C635        C637   1.411       .  A
C635        C636   1.411       .  A
C636        C644   1.402       .  A
C637        C646   1.401       .  A
C637        C638   1.402       .  A
C638        C639   1.397       .  A
C638        H649   1.084       .  S
C639        C640   1.401       .  A
C639        H650   1.078   1_655  S
C640        C641   1.402       .  A
C641        C642   1.405       .  A
C641        H651   1.085       .  S
C642        C643   1.406       .  A
C643        H652   1.084       .  S
C644        C645   1.406       .  A
C644        H653   1.084       .  S
C645        C646   1.405       .  A
C646        H654   1.084       .  S
C655        C656   1.399       .  A
C655        C660   1.403       .  A
C655        H671   1.083       .  S
C656        C657   1.403       .  A
C656        H672   1.083       .  S
C657        C667   1.404       .  A
C657        C658   1.412       .  A
C658        C664   1.412       .  A
C658        C659   1.413       .  A
C659        C661   1.411       .  A
C659        C660   1.412       .  A
C660        C668   1.405       .  A
C661        C670   1.404       .  A
C661        C662   1.404       .  A
C662        C663   1.400       .  A
C662        H673   1.083       .  S
C663        C664   1.404       .  A
C663        H674   1.084       .  S
C664        C665   1.405       .  A
C665        C666   1.405       .  A
C665        H675   1.085       .  S
C666        C667   1.404       .  A
C667        H676   1.085       .  S
C668        C669   1.406       .  A
C668        H677   1.084       .  S
C669        C670   1.409       .  A
C670        H678   1.084       .  S
C679        C680   1.398       .  A
C679        C684   1.403       .  A
C679        H695   1.083       .  S
C680        C681   1.403       .  A
C680        H696   1.084       .  S
C681        C691   1.403       .  A
C681        C682   1.413       .  A
C682        C688   1.412       .  A
C682        C683   1.414       .  A
C683        C685   1.413       .  A
C683        C684   1.410       .  A
C684        C692   1.402       .  A
C685        C694   1.409       .  A
C685        C686   1.404       .  A
C686        C687   1.401       .  A
C686        H697   1.083       .  S
C687        C688   1.405       .  A
C687        H698   1.082       .  S
C688        C689   1.407       .  A
C689        C690   1.407       .  A
C689        H699   1.085       .  S
C690        C691   1.403       .  A
C691        H700   1.085       .  S
C692        C693   1.408       .  A
C692        H701   1.084       .  S
C693        C694   1.408       .  A
C694        H702   1.084       .  S
C703        C704   1.398       .  A
C703        C708   1.403       .  A
C703        H719   1.083       .  S
C704        C705   1.403       .  A
C704        H720   1.084       .  S
C705        C715   1.402       .  A
C705        C706   1.412       .  A
C706        C712   1.413       .  A
C706        C707   1.414       .  A
C707        C709   1.412       .  A
C707        C708   1.411       .  A
C708        C716   1.402       .  A
C709        C718   1.408       .  A
C709        C710   1.404       .  A
C710        C711   1.401       .  A
C710        H721   1.081       .  S
C711        C712   1.404       .  A
C711        H722   1.083       .  S
C712        C713   1.407       .  A
C713        C714   1.406       .  A
C713        H723   1.085       .  S
C714        C715   1.404       .  A
C715        H724   1.085       .  S
C716        C717   1.407       .  A
C716        H725   1.084       .  S
C717        C718   1.408       .  A
C718        H726   1.084       .  S
C727        C728   1.399       .  A
C727        C732   1.404       .  A
C727        H743   1.084       .  S
C728        C729   1.403       .  A
C728        H744   1.084       .  S
C729        C739   1.402       .  A
C729        C730   1.411       .  A
C730        C736   1.413       .  A
C730        C731   1.416       .  A
C731        C733   1.412       .  A
C731        C732   1.411       .  A
C732        C740   1.404       .  A
C733        C742   1.411       .  A
C733        C734   1.405       .  A
C734        C735   1.402       .  A
C734        H745   1.081       .  S
C735        C736   1.404       .  A
C735        H746   1.083       .  S
C736        C737   1.410       .  A
C737        C738   1.406       .  A
C737        H747   1.084       .  S
C738        C739   1.406       .  A
C739        H748   1.085       .  S
C740        C741   1.409       .  A
C740        H749   1.084       .  S
C741        C742   1.410       .  A
C742        H750   1.084       .  S
C751        C752   1.399       .  A
C751        C756   1.402       .  A
C751        H767   1.078   1_455  S
C752        C753   1.403       .  A
C752        H768   1.084   1_455  S
C753        C763   1.403       .  A
C753        C754   1.413       .  A
C754        C760   1.411       .  A
C754        C755   1.409       .  A
C755        C757   1.411       .  A
C755        C756   1.411       .  A
C756        C764   1.403       .  A
C757        C766   1.398       .  A
C757        C758   1.402       .  A
C758        C759   1.396       .  A
C758        H769   1.084       .  S
C759        C760   1.403       .  A
C759        H770   1.084       .  S
C760        C761   1.398       .  A
C761        C762   1.404       .  A
C761        H771   1.085       .  S
C762        C763   1.404       .  A
C763        H772   1.084       .  S
C764        C765   1.405       .  A
C764        H773   1.084       .  S
C765        C766   1.402       .  A
C766        H774   1.085       .  S
C775        C776   1.397       .  A
C775        C780   1.403       .  A
C775        H791   1.084       .  S
C776        C777   1.401       .  A
C776        H792   1.078   1_455  S
C777        C787   1.401       .  A
C777        C778   1.410       .  A
C778        C784   1.411       .  A
C778        C779   1.409       .  A
C779        C781   1.411       .  A
C779        C780   1.412       .  A
C780        C788   1.400       .  A
C781        C790   1.400       .  A
C781        C782   1.403       .  A
C782        C783   1.398       .  A
C782        H793   1.084       .  S
C783        C784   1.402       .  A
C783        H794   1.084       .  S
C784        C785   1.400       .  A
C785        C786   1.403       .  A
C785        H795   1.085       .  S
C786        C787   1.404       .  A
C787        H796   1.085       .  S
C788        C789   1.404       .  A
C788        H797   1.084       .  S
C789        C790   1.404       .  A
C790        H798   1.084       .  S
C799        C800   1.397       .  A
C799        C804   1.402       .  A
C799        H815   1.084       .  S
C800        C801   1.403       .  A
C800        H816   1.084       .  S
C801        C811   1.399       .  A
C801        C802   1.411       .  A
C802        C808   1.413       .  A
C802        C803   1.411       .  A
C803        C805   1.411       .  A
C803        C804   1.412       .  A
C804        C812   1.399       .  A
C805        C814   1.404       .  A
C805        C806   1.404       .  A
C806        C807   1.400       .  A
C806        H817   1.081       .  S
C807        C808   1.405       .  A
C807        H818   1.083       .  S
C808        C809   1.405       .  A
C809        C810   1.406       .  A
C809        H819   1.084       .  S
C810        C811   1.406       .  A
C811        H820   1.084       .  S
C812        C813   1.403       .  A
C812        H821   1.084       .  S
C813        C814   1.408       .  A
C814        H822   1.084       .  S
C823        C824   1.397       .  A
C823        C828   1.403       .  A
C823        H839   1.083       .  S
C824        C825   1.401       .  A
C824        H840   1.080       .  S
C825        C835   1.399       .  A
C825        C826   1.410       .  A
C826        C832   1.412       .  A
C826        C827   1.411       .  A
C827        C829   1.410       .  A
C827        C828   1.413       .  A
C828        C836   1.402       .  A
C829        C838   1.403       .  A
C829        C830   1.405       .  A
C830        C831   1.400       .  A
C830        H841   1.084       .  S
C831        C832   1.404       .  A
C831        H842   1.084       .  S
C832        C833   1.405       .  A
C833        C834   1.407       .  A
C833        H843   1.084       .  S
C834        C835   1.405       .  A
C835        H844   1.084       .  S
C836        C837   1.405       .  A
C836        H845   1.084       .  S
C837        C838   1.408       .  A
C838        H846   1.084       .  S
