geometry optimzed in LAMMPS
_audit_creation_date              2020-11-30 
_audit_creation_method            'lammps2cif' 
_symmetry_space_group_name_H-M    'P1' 
_symmetry_Int_Tables_number       1 
_symmetry_cell_setting            triclinic 
loop_ 
_symmetry_equiv_pos_as_xyz 
  x,y,z 
_cell_length_a                    27.21363676 
_cell_length_b                    27.60391593415244 
_cell_length_c                    27.5938740816037 
_cell_angle_alpha                 90.44118033983649 
_cell_angle_beta                  89.81129589334155 
_cell_angle_gamma                 89.7523924517949 
loop_ 
_atom_site_label 
_atom_site_type_symbol 
_atom_site_fract_x 
_atom_site_fract_y 
_atom_site_fract_z 
_atom_site_charge 
O1          O  0.95782622  0.56465609  0.85209756    -0.80600
O2          O  0.14383303  0.62533548  0.83271322    -0.65300
O3          O  0.04283863  0.54915762  0.86775132    -1.11900
C4          C  0.98948676  0.65012440  0.98361765     1.06300
O5          O  0.15937581  0.62255507  0.91503760    -0.78500
O6          O  0.10382857  0.56056572  0.97228977    -0.66100
Ni7        Ni  0.00289136  0.52265991  0.82402312     1.34900
C8          C  0.06554026  0.53601069  0.98212977     0.85000
O9          O  0.09911249  0.54149678  0.77913867    -0.79000
O10         O  0.05591663  0.48134554  0.80675000    -0.89300
C11         C  0.17304802  0.62438176  0.86977336     0.84600
O12         O  0.00277669  0.56374780  0.77052708    -0.67500
O13         O  0.03556048  0.64183272  0.99571239    -0.86800
C14         C  0.00667468  0.60914602  0.76949935     0.85400
C15         C  0.08158018  0.49706218  0.77334136     1.07000
H16         H  0.05802461  0.66077209  0.88470692     0.38800
O17         O  0.06564519  0.62825082  0.89510898    -1.09500
O18         O  0.02506876  0.55394407  0.96724877    -0.66100
Ni19       Ni  0.00853328  0.59525124  0.90957110     1.26300
O20         O  0.03965422  0.62847259  0.79750074    -0.66300
O21         O  0.97825743  0.64689044  0.94068486    -0.78600
C22         C  0.95488085  0.53979767  0.89008698     0.84800
O23         O  0.95082216  0.56188016  0.92787978    -0.65800
Ni24       Ni  0.09907603  0.63058982  0.95462737     1.27400
Ni25       Ni  0.08660623  0.58790284  0.83943765     1.26100
H26         H  0.06103249  0.52519990  0.88578837     0.39400
O27         O  0.97168470  0.46464980  0.85097213    -0.80600
O28         O  0.78487795  0.40448744  0.83422435    -0.65300
O29         O  0.88703065  0.48010037  0.86786665    -1.11900
C30         C  0.94320932  0.37689741  0.97940233     1.06300
O31         O  0.77204730  0.40560894  0.91724911    -0.78500
O32         O  0.82811863  0.46623785  0.97485237    -0.66100
Ni33       Ni  0.92670532  0.50671030  0.82382778     1.34900
C34         C  0.86644855  0.49090634  0.98405554     0.85000
O35         O  0.83063332  0.48758323  0.77927803    -0.79000
O36         O  0.87378843  0.54800060  0.80688941    -0.89300
C37         C  0.75691398  0.40494993  0.87257416     0.84600
O38         O  0.92669756  0.46503142  0.77006925    -0.67500
O39         O  0.89748118  0.38477726  0.99324774    -0.86800
C40         C  0.92308873  0.41957249  0.76892635     0.85400
C41         C  0.84847719  0.53190589  0.77327998     1.07000
H42         H  0.87251891  0.36827865  0.88248210     0.38800
O43         O  0.86488004  0.40062469  0.89390615    -1.09500
O44         O  0.90657105  0.47360110  0.96722486    -0.66100
Ni45       Ni  0.92212388  0.43355701  0.90788656     1.26300
O46         O  0.88984550  0.40040440  0.79662997    -0.66300
O47         O  0.95336760  0.38149798  0.93634414    -0.78600
C48         C  0.97496688  0.48929068  0.88939622     0.84800
O49         O  0.97982234  0.46701430  0.92657014    -0.65800
Ni50       Ni  0.83305510  0.39677058  0.95445894     1.27400
Ni51       Ni  0.84313870  0.44130450  0.83932135     1.26100
H52         H  0.86899229  0.50392068  0.88678631     0.39400
N53         N  0.60452684  0.40231214  0.79287691    -0.03200
C54         C  0.61242780  0.41024724  0.84051002    -0.00600
C55         C  0.57359687  0.39282720  0.86725339    -0.23500
C56         C  0.54255906  0.37029846  0.83470006    -0.23700
C57         C  0.56377893  0.37473373  0.78922344    -0.00700
H58         H  0.57205745  0.38972160  0.90624269     0.13100
H59         H  0.51330551  0.34571485  0.84440595     0.13100
N60         N  0.32070025  0.62504487  0.77977954    -0.03200
C61         C  0.31507202  0.61676316  0.82762297    -0.00600
C62         C  0.35662578  0.63087554  0.85238190    -0.23500
C63         C  0.38735342  0.65160162  0.81850487    -0.23700
C64         C  0.36325986  0.64943326  0.77434706    -0.00700
H65         H  0.36078434  0.63325421  0.89132469     0.13100
H66         H  0.41894745  0.67377944  0.82696686     0.13100
O67         O  0.52498158  0.15828403  0.00851656    -0.80600
O68         O  0.59174573  0.17465543  0.82632659    -0.65300
O69         O  0.51179308  0.14104483  0.92470403    -1.11900
C70         C  0.61370257  0.02709715  0.98062469     1.06300
O71         O  0.59038118  0.09192106  0.81208381    -0.78500
O72         O  0.52665020  0.03482855  0.86578380    -0.66100
Ni73       Ni  0.48343326  0.18529242  0.96321277     1.34900
C74         C  0.50055982  0.02562844  0.90302648     0.85000
O75         O  0.50531826  0.22916076  0.86911914    -0.79000
O76         O  0.44289015  0.20174099  0.91010828    -0.89300
C77         C  0.59187456  0.13682917  0.79801760     0.84600
O78         O  0.52511187  0.23889033  0.96379849    -0.67500
O79         O  0.60704363  0.01409216  0.93510423    -0.86800
C80         C  0.57126540  0.24001469  0.96113605     0.85400
C81         C  0.45976533  0.23522784  0.88567304     1.07000
H82         H  0.62553960  0.12491171  0.91248222     0.38800
O83         O  0.59291065  0.11397910  0.90424134    -1.09500
O84         O  0.51709055  0.04182692  0.94316957    -0.66100
Ni85       Ni  0.55784589  0.10026254  0.95993492     1.26300
O86         O  0.59202358  0.21171193  0.92922542    -0.66300
O87         O  0.60945848  0.07016947  0.99132687    -0.78600
C88         C  0.49990591  0.12015185  0.01123771     0.84800
O89         O  0.52232849  0.08264287  0.01615523    -0.65800
Ni90       Ni  0.59719789  0.05377586  0.87197644     1.27400
Ni91       Ni  0.55226054  0.16902410  0.88230371     1.26100
H92         H  0.48816739  0.12244468  0.90635707     0.39400
O93         O  0.42396928  0.15835894  0.99330421    -0.80600
O94         O  0.35752936  0.17750066  0.17592024    -0.65300
O95         O  0.43753723  0.14234131  0.07720639    -1.11900
C96         C  0.33553772  0.02881959  0.02073820     1.06300
O97         O  0.35894130  0.09490170  0.18983963    -0.78500
O98         O  0.42271834  0.03660821  0.13565815    -0.66100
Ni99       Ni  0.46538262  0.18606638  0.03858218     1.34900
C100        C  0.44870215  0.02682447  0.09829055     0.85000
O101        O  0.44348081  0.23126500  0.13308805    -0.79000
O102        O  0.50584896  0.20337231  0.09163374    -0.89300
C103        C  0.35727893  0.14001094  0.20410605     0.84600
O104        O  0.42310383  0.23958757  0.03809307    -0.67500
O105        O  0.34226223  0.01599759  0.06614217    -0.86800
C106        C  0.37691004  0.24039428  0.04066908     0.85400
C107        C  0.48895082  0.23706519  0.11647627     1.07000
H108        H  0.32385344  0.12700925  0.08957923     0.38800
O109        O  0.35651110  0.11596803  0.09773640    -1.09500
O110        O  0.43216689  0.04286313  0.05830578    -0.66100
Ni111      Ni  0.39150563  0.10147156  0.04192660     1.26300
O112        O  0.35667473  0.21282457  0.07293352    -0.66300
O113        O  0.33981663  0.07176379  0.01044898    -0.78600
C114        C  0.44923371  0.12010204  0.99055456     0.84800
O115        O  0.42698605  0.08263663  0.98561569    -0.65800
Ni116      Ni  0.35218420  0.05615610  0.12963783     1.27400
Ni117      Ni  0.39695218  0.17101297  0.11980854     1.26100
H118        H  0.46131640  0.12385247  0.09541020     0.39400
N119        N  0.58019302  0.22184052  0.64987200    -0.03200
C120        C  0.57889926  0.17351553  0.65700311    -0.00600
C121        C  0.59599597  0.14937798  0.61632743    -0.23500
C122        C  0.61157417  0.18465554  0.58462409    -0.23700
C123        C  0.60373052  0.22900701  0.60736859    -0.00700
H124        H  0.60405512  0.11102826  0.61323802     0.13100
H125        H  0.63480402  0.17812859  0.55330638     0.13100
N126        N  0.35463999  0.22388458  0.35485226    -0.03200
C127        C  0.36278035  0.17630074  0.34651297    -0.00600
C128        C  0.34746360  0.14968694  0.38579240    -0.23500
C129        C  0.32572245  0.18223050  0.41765539    -0.23700
C130        C  0.32872007  0.22755308  0.39656345    -0.00700
H131        H  0.34505435  0.11064781  0.38760634     0.13100
H132        H  0.30250972  0.17250951  0.44796619     0.13100
O133        O  0.52435368  0.86371403  0.99281312    -0.80600
O134        O  0.58611749  0.84457089  0.17550393    -0.65300
O135        O  0.50867320  0.88023244  0.07644502    -1.11900
C136        C  0.61285176  0.99309811  0.02351291     1.06300
O137        O  0.58375141  0.92703867  0.19092614    -0.78500
O138        O  0.52225325  0.98579271  0.13631418    -0.66100
Ni139      Ni  0.48155478  0.83648546  0.03696724     1.34900
C140        C  0.49739780  0.99567696  0.09855898     0.85000
O141        O  0.50077372  0.79192038  0.13142939    -0.79000
O142        O  0.43952523  0.81982087  0.08906354    -0.89300
C143        C  0.58481591  0.88186989  0.20434846     0.84600
O144        O  0.52317221  0.78243331  0.03659523    -0.67500
O145        O  0.60497143  0.00595921  0.06898364    -0.86800
C146        C  0.56921982  0.78089365  0.04044281     0.85400
C147        C  0.45569423  0.78633480  0.11409079     1.07000
H148        H  0.62215344  0.89491962  0.09091926     0.38800
O149        O  0.58933993  0.90613951  0.09859811    -1.09500
O150        O  0.51507740  0.97962431  0.05869986    -0.66100
Ni151      Ni  0.55582001  0.92071211  0.04240993     1.26300
O152        O  0.58893244  0.80885142  0.07294818    -0.66300
O153        O  0.60846132  0.95019000  0.01238857    -0.78600
C154        C  0.49931359  0.90205451  0.98991666     0.84800
O155        O  0.52187302  0.93939066  0.98564380    -0.65800
Ni156      Ni  0.59285309  0.96585732  0.13160084     1.27400
Ni157      Ni  0.54800720  0.85151355  0.11931421     1.26100
H158        H  0.48456350  0.89891089  0.09447005     0.39400
O159        O  0.42280216  0.86443539  0.00653596    -0.80600
O160        O  0.36195973  0.84585388  0.82229637    -0.65300
O161        O  0.43886481  0.87984226  0.92301510    -1.11900
C162        C  0.33604009  0.99478725  0.97734582     1.06300
O163        O  0.36388238  0.92857031  0.80894812    -0.78500
O164        O  0.42679108  0.98553900  0.86437026    -0.66100
Ni165      Ni  0.46546559  0.83601633  0.96237715     1.34900
C166        C  0.45164290  0.99513182  0.90229913     0.85000
O167        O  0.44632835  0.79103561  0.86720714    -0.79000
O168        O  0.50749852  0.81807162  0.91035017    -0.89300
C169        C  0.36209558  0.88361895  0.79440237     0.84600
O170        O  0.42328810  0.78271413  0.96236674    -0.67500
O171        O  0.34446667  0.00752918  0.93218817    -0.86800
C172        C  0.37723701  0.78188694  0.95832866     0.85400
C173        C  0.49120273  0.78470989  0.88492252     1.07000
H174        H  0.32569795  0.89656938  0.90816483     0.38800
O175        O  0.35865930  0.90716701  0.90077314    -1.09500
O176        O  0.43366148  0.97946799  0.94189452    -0.66100
Ni177      Ni  0.39201191  0.92138926  0.95730885     1.26300
O178        O  0.35797872  0.80965379  0.92552035    -0.66300
O179        O  0.33948294  0.95174748  0.98759162    -0.78600
C180        C  0.44807062  0.90245038  0.00971128     0.84800
O181        O  0.42575788  0.94009668  0.01443539    -0.65800
Ni182      Ni  0.35590621  0.96721900  0.86896831     1.27400
Ni183      Ni  0.39952187  0.85157922  0.87957296     1.26100
H184        H  0.46318501  0.89799636  0.90524737     0.39400
N185        N  0.35318066  0.80536745  0.64043932    -0.03200
C186        C  0.36238776  0.85233427  0.65074159    -0.00600
C187        C  0.34587887  0.88131007  0.61362226    -0.23500
C188        C  0.32278425  0.85083870  0.58102052    -0.23700
C189        C  0.32593988  0.80441761  0.59963831    -0.00700
H190        H  0.34357523  0.92047082  0.61395453     0.13100
H191        H  0.29859982  0.86254625  0.55227426     0.13100
N192        N  0.57851720  0.79648951  0.35291495    -0.03200
C193        C  0.57202878  0.84425691  0.34500961    -0.00600
C194        C  0.58956858  0.87056830  0.38387561    -0.23500
C195        C  0.61122205  0.83763644  0.41462271    -0.23700
C196        C  0.60617564  0.79250308  0.39329928    -0.00700
H197        H  0.59413602  0.90939401  0.38545221     0.13100
H198        H  0.63648769  0.84659149  0.44334415     0.13100
O199        O  0.10221544  0.03049643  0.54466010    -0.80600
O200        O  0.12260706  0.84714650  0.60782987    -0.65300
O201        O  0.08696679  0.94616058  0.53072579    -1.11900
C202        C  0.96895703  0.99945769  0.63013271     1.06300
O203        O  0.03906810  0.83206015  0.60583513    -0.78500
O204        O  0.98172252  0.88583456  0.54267651    -0.66100
Ni205      Ni  0.13103441  0.98528031  0.50369878     1.34900
C206        C  0.97156844  0.92329252  0.51786878     0.85000
O207        O  0.17684770  0.89052086  0.52393218    -0.79000
O208        O  0.14913173  0.93244898  0.46313309    -0.89300
C209        C  0.08490753  0.81845271  0.60755956     0.84600
O210        O  0.18513986  0.98642370  0.54506579    -0.67500
O211        O  0.95675062  0.95397402  0.62250343    -0.86800
C212        C  0.18645963  0.98277217  0.59045312     0.85400
C213        C  0.18295242  0.90734369  0.47943002     1.07000
H214        H  0.06997074  0.93250603  0.64257517     0.38800
O215        O  0.05931590  0.92451816  0.61010417    -1.09500
O216        O  0.98614291  0.96345681  0.53547867    -0.66100
Ni217      Ni  0.04452275  0.98033446  0.57644826     1.26300
O218        O  0.15837960  0.95025258  0.61002194    -0.66300
O219        O  0.01260089  0.01029402  0.62776054    -0.78600
C220        C  0.06365721  0.03268884  0.51962962     0.84800
O221        O  0.02545254  0.03639168  0.54186183    -0.65800
Ni222      Ni  0.99890395  0.89150947  0.61272738     1.27400
Ni223      Ni  0.11572847  0.90337382  0.56996201     1.26100
H224        H  0.06870807  0.92787377  0.50688002     0.39400
O225        O  0.10356353  0.01407502  0.44494485    -0.80600
O226        O  0.12393137  0.19555925  0.38050326    -0.65300
O227        O  0.08753050  0.09780068  0.45827986    -1.11900
C228        C  0.97493083  0.04153777  0.35549025     1.06300
O229        O  0.04016818  0.21021251  0.38194586    -0.78500
O230        O  0.98100285  0.15560261  0.44317050    -0.66100
Ni231      Ni  0.13150896  0.05903440  0.48623054     1.34900
C232        C  0.97061712  0.11800081  0.46767055     0.85000
O233        O  0.17755982  0.15306787  0.46546665    -0.79000
O234        O  0.14908943  0.11204076  0.52654215    -0.89300
C235        C  0.08589671  0.22408141  0.38098423     0.84600
O236        O  0.18610554  0.05744514  0.44489827    -0.67500
O237        O  0.96130706  0.08692840  0.36238213    -0.86800
C238        C  0.18794330  0.06068977  0.39943891     0.85400
C239        C  0.18324847  0.13659474  0.51019416     1.07000
H240        H  0.07380639  0.10984245  0.34577181     0.38800
O241        O  0.06218689  0.11800740  0.37793479    -1.09500
O242        O  0.98685000  0.07817091  0.45055157    -0.66100
Ni243      Ni  0.04731793  0.06241464  0.41174428     1.26300
O244        O  0.16022377  0.09310453  0.37942087    -0.66300
O245        O  0.01862714  0.03129000  0.35969986    -0.78600
C246        C  0.06447289  0.01170887  0.46932796     0.84800
O247        O  0.02698825  0.00675781  0.44654738    -0.65800
Ni248      Ni  0.00137750  0.15022805  0.37362482     1.27400
Ni249      Ni  0.11708030  0.13995776  0.41889476     1.26100
H250        H  0.06828111  0.11625800  0.48151494     0.39400
N251        N  0.17022950  0.66772205  0.60948121    -0.03200
C252        C  0.12210353  0.67629631  0.60159315    -0.00600
C253        C  0.09474982  0.63679450  0.61545776    -0.23500
C254        C  0.12746274  0.60428968  0.63565861    -0.23700
C255        C  0.17362041  0.62519975  0.63309512    -0.00700
H256        H  0.05510988  0.63490433  0.61747221     0.13100
H257        H  0.11737607  0.57323603  0.65719142     0.13100
N258        N  0.17646426  0.36936297  0.38472405    -0.03200
C259        C  0.12778435  0.36379650  0.39222429    -0.00600
C260        C  0.10294257  0.40490785  0.37815939    -0.23500
C261        C  0.13757970  0.43513811  0.35790402    -0.23700
C262        C  0.18239021  0.41126780  0.36048892    -0.00700
H263        H  0.06354365  0.40914018  0.37573840     0.13100
H264        H  0.12935442  0.46638087  0.33583370     0.13100
O265        O  0.79629797  0.01767564  0.53824284    -0.80600
O266        O  0.78864032  0.20009762  0.60244598    -0.65300
O267        O  0.82210218  0.09979667  0.52409371    -1.11900
C268        C  0.93435433  0.04243802  0.62790633     1.06300
O269        O  0.87274688  0.21210996  0.60209969    -0.78500
O270        O  0.93024456  0.15565378  0.54088469    -0.66100
Ni271      Ni  0.77431643  0.06472909  0.49526257     1.34900
C272        C  0.93887871  0.11794661  0.51532886     0.85000
O273        O  0.73597577  0.15940220  0.51458629    -0.79000
O274        O  0.76769197  0.11898145  0.45438955    -0.89300
C275        C  0.82747036  0.22741028  0.60295627     0.84600
O276        O  0.71817114  0.07733241  0.53603067    -0.67500
O277        O  0.94835859  0.08743805  0.62112448    -0.86800
C278        C  0.72127407  0.06765436  0.57983195     0.85400
C279        C  0.73214503  0.14215983  0.46943928     1.07000
H280        H  0.83679864  0.11375377  0.63673561     0.38800
O281        O  0.84883061  0.12087522  0.60460672    -1.09500
O282        O  0.92123072  0.07822529  0.53130046    -0.66100
Ni283      Ni  0.86082172  0.06385779  0.57098433     1.26300
O284        O  0.75264125  0.09441094  0.60269162    -0.66300
O285        O  0.89072070  0.03221997  0.62216168    -0.78600
C286        C  0.83598192  0.01161077  0.51523898     0.84800
O287        O  0.87354588  0.00562793  0.53801575    -0.65800
Ni288      Ni  0.90993957  0.15133335  0.61001940     1.27400
Ni289      Ni  0.79454582  0.14375143  0.56353612     1.26100
H290        H  0.84253703  0.11669207  0.50107035     0.39400
O291        O  0.79993647  0.02384412  0.43956701    -0.80600
O292        O  0.79812823  0.83875798  0.37689415    -0.65300
O293        O  0.82438364  0.94068158  0.45633870    -1.11900
C294        C  0.94132392  0.99802303  0.35653732     1.06300
O295        O  0.88214639  0.82738102  0.37961130    -0.78500
O296        O  0.93539980  0.88487028  0.44332682    -0.66100
Ni297      Ni  0.77481433  0.97765667  0.48137917     1.34900
C298        C  0.94192635  0.92270084  0.46921211     0.85000
O299        O  0.74243806  0.87755658  0.46204550    -0.79000
O300        O  0.75924006  0.92635100  0.52343393    -0.89300
C301        C  0.83721204  0.81164942  0.37709946     0.84600
O302        O  0.72257439  0.97019581  0.43864681    -0.67500
O303        O  0.95596430  0.95321568  0.36391595    -0.86800
C304        C  0.72738929  0.97212557  0.39327843     0.85400
C305        C  0.73275545  0.89387945  0.50658874     1.07000
H306        H  0.84544091  0.92598318  0.34430630     0.38800
O307        O  0.85640324  0.91902834  0.37680362    -1.09500
O308        O  0.92410397  0.96214427  0.45273546    -0.66100
Ni309      Ni  0.86563910  0.97611623  0.41084559     1.26300
O310        O  0.75838295  0.94119191  0.37461583    -0.66300
O311        O  0.89731771  0.00767081  0.36068189    -0.78600
C312        C  0.83780909  0.02934601  0.46500517     0.84800
O313        O  0.87687498  0.03418102  0.44445739    -0.65800
Ni314      Ni  0.91827686  0.88891643  0.37343192     1.27400
Ni315      Ni  0.80150380  0.89524085  0.41601854     1.26100
H316        H  0.84313846  0.92462352  0.48123942     0.39400
N317        N  0.76265654  0.65485329  0.38758958    -0.03200
C318        C  0.81035784  0.66746136  0.39062762    -0.00600
C319        C  0.83995542  0.62818502  0.37999038    -0.23500
C320        C  0.80879313  0.59099980  0.36664410    -0.23700
C321        C  0.76109811  0.60912820  0.36943042    -0.00700
H322        H  0.87950169  0.62829630  0.37631291     0.13100
H323        H  0.82021887  0.55709843  0.35007899     0.13100
N324        N  0.74778184  0.37810506  0.61419946    -0.03200
C325        C  0.79544926  0.37022690  0.60292361    -0.00600
C326        C  0.82368454  0.40853191  0.61877062    -0.23500
C327        C  0.79220041  0.43940838  0.64358922    -0.23700
C328        C  0.74588797  0.41874771  0.64170700    -0.00700
H329        H  0.86339850  0.41003285  0.61923038     0.13100
H330        H  0.80353773  0.46860686  0.66740586     0.13100
O331        O  0.97557175  0.56065148  0.14555823    -0.80600
O332        O  0.79248090  0.62794623  0.16892436    -0.65300
O333        O  0.89030596  0.54794378  0.13005309    -1.11900
C334        C  0.94610260  0.65020904  0.01822822     1.06300
O335        O  0.77561763  0.62723170  0.08679343    -0.78500
O336        O  0.82953611  0.56434586  0.02641650    -0.66100
Ni337      Ni  0.92990167  0.51957503  0.17283634     1.34900
C338        C  0.86723791  0.53881388  0.01547538     0.85000
O339        O  0.83538397  0.54123559  0.21936922    -0.79000
O340        O  0.87627339  0.47963194  0.18991615    -0.89300
C341        C  0.76265403  0.62896088  0.13239278     0.84600
O342        O  0.93131963  0.56034755  0.22706818    -0.67500
O343        O  0.89975594  0.64394763  0.00591417    -0.86800
C344        C  0.92889778  0.60586413  0.22880567     0.85400
C345        C  0.85192539  0.49619496  0.22422225     1.07000
H346        H  0.87835809  0.66058968  0.11727118     0.38800
O347        O  0.86971272  0.62861424  0.10574496    -1.09500
O348        O  0.90813873  0.55504952  0.03072591    -0.66100
Ni349      Ni  0.92576761  0.59383448  0.08992213     1.26300
O350        O  0.89633807  0.62656368  0.20172627    -0.66300
O351        O  0.95743010  0.64507277  0.06089648    -0.78600
C352        C  0.97783973  0.53612538  0.10696558     0.84800
O353        O  0.98216476  0.55850178  0.06974812    -0.65800
Ni354      Ni  0.83600159  0.63384046  0.04680871     1.27400
Ni355      Ni  0.84799760  0.58798669  0.15998481     1.26100
H356        H  0.87145430  0.52489228  0.11134546     0.39400
O357        O  0.96033780  0.46112049  0.14447737    -0.80600
O358        O  0.14528614  0.39579642  0.15923250    -0.65300
O359        O  0.04507623  0.47473315  0.12708774    -1.11900
C360        C  0.98746791  0.37538220  0.01259604     1.06300
O361        O  0.15918261  0.39857748  0.07650936    -0.78500
O362        O  0.10355611  0.46182189  0.02061440    -0.66100
Ni363      Ni  0.00637547  0.50198281  0.17195490     1.34900
C364        C  0.06548694  0.48736051  0.01189516     0.85000
O365        O  0.10257258  0.48028142  0.21486583    -0.79000
O366        O  0.06035503  0.54193321  0.18862785    -0.89300
C367        C  0.17376506  0.39654813  0.12141034     0.84600
O368        O  0.00643317  0.46025561  0.22503532    -0.67500
O369        O  0.03339275  0.38240533  0.99915748    -0.86800
C370        C  0.00912178  0.41472070  0.22526934     0.85400
C371        C  0.08590828  0.52513307  0.22158324     1.07000
H372        H  0.05795259  0.36278607  0.10939974     0.38800
O373        O  0.06593249  0.39513776  0.09892540    -1.09500
O374        O  0.02509076  0.47047557  0.02796176    -0.66100
Ni375      Ni  0.00913462  0.42954805  0.08603439     1.26300
O376        O  0.04139833  0.39479488  0.19654530    -0.66300
O377        O  0.97739799  0.37863479  0.05586345    -0.78600
C378        C  0.95698949  0.48613766  0.10662517     0.84800
O379        O  0.95162502  0.46431458  0.06892537    -0.65800
Ni380      Ni  0.09799015  0.39195384  0.03850165     1.27400
Ni381      Ni  0.08850868  0.43465656  0.15429553     1.26100
H382        H  0.06340162  0.49829130  0.10869354     0.39400
N383        N  0.61422038  0.60836533  0.22442343    -0.03200
C384        C  0.62238250  0.60525182  0.17587409    -0.00600
C385        C  0.58006694  0.61615163  0.15091697    -0.23500
C386        C  0.54632116  0.63142024  0.18494908    -0.23700
C387        C  0.56966214  0.63055925  0.22946918    -0.00700
H388        H  0.57695122  0.62159387  0.11222254     0.13100
H389        H  0.51340032  0.65182991  0.17653935     0.13100
N390        N  0.32329627  0.39828835  0.20765061    -0.03200
C391        C  0.31660732  0.40507345  0.15975224    -0.00600
C392        C  0.35722864  0.38880525  0.13437982    -0.23500
C393        C  0.38803677  0.36769852  0.16793805    -0.23700
C394        C  0.36506325  0.37223208  0.21264685    -0.00700
H395        H  0.36044368  0.38552760  0.09545644     0.13100
H396        H  0.41876123  0.34410526  0.15926404     0.13100
O397        O  0.37777483  0.90702332  0.30557199    -0.80600
O398        O  0.38964523  0.97317879  0.51045241    -0.65300
O399        O  0.35574884  0.90426132  0.39796300    -1.11900
C400        C  0.23458662  0.03626473  0.37978248     1.06300
O401        O  0.31302968  0.97158090  0.50249198    -0.78500
O402        O  0.23106710  0.97197512  0.45838473    -0.66100
Ni403      Ni  0.41644722  0.90007587  0.36581061     1.34900
C404        C  0.22957478  0.92651040  0.45504339     0.85000
O405        O  0.39915203  0.88686137  0.48502032    -0.79000
O406        O  0.45620071  0.88954397  0.42914333    -0.89300
C407        C  0.35196300  0.99582348  0.50554883     0.84600
O408        O  0.43563774  0.96984278  0.36121865    -0.67500
O409        O  0.26843697  0.05283173  0.40472407    -0.86800
C410        C  0.44597705  0.99479788  0.39895732     0.85400
C411        C  0.44276486  0.88272642  0.47449839     1.07000
H412        H  0.34891063  0.00780828  0.40078635     0.38800
O413        O  0.32978728  0.98465788  0.41884927    -1.09500
O414        O  0.25754817  0.90611470  0.42259011    -0.66100
Ni415      Ni  0.30082350  0.94496584  0.37601380     1.26300
O416        O  0.43019927  0.97784516  0.43878481    -0.66300
O417        O  0.24051257  0.99150856  0.36287568    -0.78600
C418        C  0.33213037  0.90488596  0.29152068     0.84800
O419        O  0.29400562  0.90598662  0.31994466    -0.65800
Ni420      Ni  0.28551330  0.01290974  0.45761846     1.27400
Ni421      Ni  0.37016470  0.93848524  0.45404881     1.26100
H422        H  0.34440132  0.87212565  0.40574904     0.39400
O423        O  0.37668947  0.13470605  0.68567887    -0.80600
O424        O  0.39077653  0.06761373  0.48139276    -0.65300
O425        O  0.35644049  0.13731882  0.59321718    -1.11900
C426        C  0.23318838  0.00694202  0.61021569     1.06300
O427        O  0.31395774  0.07102613  0.48814818    -0.78500
O428        O  0.23103964  0.07151012  0.53174260    -0.66100
Ni429      Ni  0.41693509  0.14133884  0.62579040     1.34900
C430        C  0.22974327  0.11696796  0.53490654     0.85000
O431        O  0.40158413  0.15381556  0.50679679    -0.79000
O432        O  0.45832530  0.15107611  0.56244378    -0.89300
C433        C  0.35256616  0.04585414  0.48537894     0.84600
O434        O  0.43692030  0.07169437  0.63159309    -0.67500
O435        O  0.26724911  0.99000448  0.58537608    -0.86800
C436        C  0.44735763  0.04634264  0.59406111     0.85400
C437        C  0.44524144  0.15768119  0.51694367     1.07000
H438        H  0.34842309  0.03378415  0.59038879     0.38800
O439        O  0.32981805  0.05731460  0.57213828    -1.09500
O440        O  0.25784087  0.13702511  0.56726104    -0.66100
Ni441      Ni  0.30038857  0.09755420  0.61442386     1.26300
O442        O  0.43109078  0.06274274  0.55410523    -0.66300
O443        O  0.23931570  0.05174957  0.62697514    -0.78600
C444        C  0.33062427  0.13661707  0.69917554     0.84800
O445        O  0.29311897  0.13680759  0.67022001    -0.65800
Ni446      Ni  0.28549606  0.03017871  0.53295881     1.27400
Ni447      Ni  0.37148525  0.10271777  0.53757837     1.26100
H448        H  0.34536779  0.16952808  0.58506903     0.39400
N449        N  0.25051367  0.89824972  0.13815383    -0.03200
C450        C  0.29834542  0.90609962  0.14816472    -0.00600
C451        C  0.32711518  0.89475722  0.10845301    -0.23500
C452        C  0.29557844  0.87679923  0.07358646    -0.23700
C453        C  0.24857326  0.87733514  0.09354617    -0.00700
H454        H  0.36685586  0.89385841  0.10697490     0.13100
H455        H  0.30685822  0.85924419  0.04012251     0.13100
N456        N  0.24317181  0.11421005  0.84995259    -0.03200
C457        C  0.29197462  0.11206182  0.83952187    -0.00600
C458        C  0.31894804  0.12529222  0.87965211    -0.23500
C459        C  0.28571413  0.14143293  0.91384897    -0.23700
C460        C  0.23961124  0.13860167  0.89290802    -0.00700
H461        H  0.35811488  0.13197771  0.88060006     0.13100
H462        H  0.29533705  0.16359286  0.94492837     0.13100
O463        O  0.28235320  0.42682067  0.88665964    -0.80600
O464        O  0.48790188  0.43983027  0.95509380    -0.65300
O465        O  0.37580213  0.40576337  0.88481332    -1.11900
C466        C  0.35653026  0.28585753  0.01584887     1.06300
O467        O  0.48068954  0.36414463  0.95186137    -0.78500
O468        O  0.43695634  0.28258803  0.95124979    -0.66100
Ni469      Ni  0.34284468  0.46553429  0.88018166     1.34900
C470        C  0.43450663  0.28119746  0.90567558     0.85000
O471        O  0.46386383  0.44953005  0.86866293    -0.79000
O472        O  0.40680676  0.50545340  0.87012716    -0.89300
C473        C  0.48303148  0.40237436  0.97690429     0.84600
O474        O  0.33573761  0.48566500  0.94979369    -0.67500
O475        O  0.38106921  0.31964166  0.03257416    -0.86800
C476        C  0.37328570  0.49555189  0.97552409     0.85400
C477        C  0.45296414  0.49234104  0.86353670     1.07000
H478        H  0.37672903  0.39890776  0.98844762     0.38800
O479        O  0.39564105  0.38023334  0.96512233    -1.09500
O480        O  0.40190300  0.30890420  0.88554904    -0.66100
Ni481      Ni  0.35350018  0.35113354  0.92481696     1.26300
O482        O  0.41411818  0.47959667  0.95914064    -0.66300
O483        O  0.34017859  0.29130906  0.97089234    -0.78600
C484        C  0.26851583  0.38172131  0.88468641     0.84800
O485        O  0.29745991  0.34420183  0.88540029    -0.65800
Ni486      Ni  0.43494758  0.33662133  0.99272612     1.27400
Ni487      Ni  0.43163256  0.42054156  0.91967686     1.26100
H488        H  0.38466681  0.39447670  0.85271588     0.39400
O489        O  0.66494893  0.42976061  0.11276882    -0.80600
O490        O  0.45714330  0.43986525  0.04930199    -0.65300
O491        O  0.57169241  0.40828818  0.11676817    -1.11900
C492        C  0.59068294  0.28620191  0.98577125     1.06300
O493        O  0.46526460  0.36417279  0.05145946    -0.78500
O494        O  0.51129881  0.28330268  0.05115579    -0.66100
Ni495      Ni  0.60403656  0.46831722  0.12021100     1.34900
C496        C  0.51393059  0.28275967  0.09667155     0.85000
O497        O  0.48345878  0.45244621  0.13455260    -0.79000
O498        O  0.53971420  0.50839941  0.13042850    -0.89300
C499        C  0.46208557  0.40235290  0.02696586     0.84600
O500        O  0.60984815  0.48641547  0.05047675    -0.67500
O501        O  0.56509776  0.31947654  0.96945043    -0.86800
C502        C  0.57190015  0.49564309  0.02518931     0.85400
C503        C  0.49375110  0.49555673  0.13783653     1.07000
H504        H  0.56863816  0.39906737  0.01360939     0.38800
O505        O  0.55028446  0.38078584  0.03723268    -1.07100
O506        O  0.54644129  0.31087278  0.11658356    -0.66100
Ni507      Ni  0.59379832  0.35287016  0.07663044     1.26300
O508        O  0.53133121  0.48007474  0.04225252    -0.66300
O509        O  0.60752801  0.29245923  0.03047908    -0.78600
C510        C  0.67938472  0.38473920  0.11400847     0.84800
O511        O  0.65082272  0.34717241  0.11476235    -0.65800
Ni512      Ni  0.51126685  0.33661015  0.00995735     1.27400
Ni513      Ni  0.51482694  0.42207371  0.08310551     1.26100
H514        H  0.56375786  0.39765672  0.14913548     0.39400
N515        N  0.11264428  0.30313036  0.88294728    -0.03200
C516        C  0.12329081  0.35037140  0.88934053    -0.00600
C517        C  0.08539831  0.37873114  0.87225274    -0.23500
C518        C  0.05215669  0.34744218  0.85107048    -0.23700
C519        C  0.07121648  0.30112674  0.85607231    -0.00700
H520        H  0.08579962  0.41765542  0.86837145     0.13100
H521        H  0.02281392  0.35812643  0.82694507     0.13100
N522        N  0.82752163  0.29655408  0.10904648    -0.03200
C523        C  0.82164202  0.34463608  0.10251860    -0.00600
C524        C  0.86296491  0.36897943  0.11787774    -0.23500
C525        C  0.89357195  0.33455665  0.13792359    -0.23700
C526        C  0.86959701  0.29049148  0.13414421    -0.00700
H527        H  0.86683280  0.40780172  0.12173159     0.13100
H528        H  0.92468886  0.34244399  0.16097966     0.13100
O529        O  0.85517990  0.32160088  0.41434033    -0.80600
O530        O  0.92281087  0.52488887  0.42713273    -0.65300
O531        O  0.85213569  0.41369792  0.39347091    -1.11900
C532        C  0.98453217  0.39460798  0.27114910     1.06300
O533        O  0.91977498  0.51722953  0.35149206    -0.78500
O534        O  0.91876806  0.47344781  0.26985317    -0.66100
Ni535      Ni  0.84763311  0.38173262  0.45323511     1.34900
C536        C  0.87256290  0.47106762  0.26934852     0.85000
O537        O  0.83517420  0.50094761  0.43751310    -0.79000
O538        O  0.83679901  0.44525223  0.49336249    -0.89300
C539        C  0.94509284  0.51978787  0.38950383     0.84600
O540        O  0.91809289  0.37565671  0.47296380    -0.67500
O541        O  0.00167177  0.41886808  0.30492912    -0.86800
C542        C  0.94372332  0.41302584  0.48271153     0.85400
C543        C  0.83004049  0.49064475  0.48039770     1.07000
H544        H  0.95711219  0.41503936  0.38532217     0.38800
O545        O  0.93339536  0.43348096  0.36694909    -1.09500
O546        O  0.85239308  0.43887124  0.29697305    -0.66100
Ni547      Ni  0.89269597  0.39152234  0.33815001     1.26300
O548        O  0.92703006  0.45291198  0.46664555    -0.66300
O549        O  0.93910002  0.37829737  0.27737508    -0.78600
C550        C  0.85359448  0.30742854  0.36918504     0.84800
O551        O  0.85334737  0.33573084  0.33177807    -0.65800
Ni552      Ni  0.96122112  0.47201797  0.32309245     1.27400
Ni553      Ni  0.88710514  0.46913548  0.40792479     1.26100
H554        H  0.81950751  0.42213590  0.38263058     0.39400
O555        O  0.08196182  0.69958511  0.41511984    -0.80600
O556        O  0.01855470  0.49461903  0.42627688    -0.65300
O557        O  0.08709524  0.60715748  0.39420649    -1.11900
C558        C  0.95417087  0.62500093  0.27445765     1.06300
O559        O  0.02086633  0.50156619  0.35051375    -0.78500
O560        O  0.02023958  0.54644371  0.26966981    -0.66100
Ni561      Ni  0.08985318  0.64013264  0.45404740     1.34900
C562        C  0.06631504  0.54945750  0.26809236     0.85000
O563        O  0.10488603  0.52082994  0.43885207    -0.79000
O564        O  0.10034500  0.57741525  0.49447756    -0.89300
C565        C  0.99592028  0.49899181  0.38895533     0.84600
O566        O  0.01901941  0.64570423  0.47265220    -0.67500
O567        O  0.93786460  0.59985768  0.30772998    -0.86800
C568        C  0.99360879  0.60831861  0.48236577     0.85400
C569        C  0.10792234  0.53181970  0.48192016     1.07000
H570        H  0.98266229  0.60394503  0.38606126     0.38800
O571        O  0.00662806  0.58565718  0.36748379    -1.09500
O572        O  0.08663861  0.58159018  0.29616850    -0.66100
Ni573      Ni  0.04637851  0.62839991  0.33927121     1.26300
O574        O  0.01112002  0.56815646  0.46669703    -0.66300
O575        O  0.99946037  0.64160889  0.27985800    -0.78600
C576        C  0.08339204  0.71313436  0.36999074     0.84800
O577        O  0.08491235  0.68434224  0.33264970    -0.65800
Ni578      Ni  0.97887683  0.54680564  0.32370207     1.27400
Ni579      Ni  0.05295043  0.55123512  0.40841828     1.26100
H580        H  0.11998145  0.59927098  0.38332223     0.39400
N581        N  0.85271743  0.15455676  0.28725688    -0.03200
C582        C  0.86069416  0.16443287  0.33453354    -0.00600
C583        C  0.84478682  0.12640130  0.36243083    -0.23500
C584        C  0.82238931  0.09410321  0.33110862    -0.23700
C585        C  0.82606905  0.11347213  0.28505651    -0.00700
H586        H  0.84284874  0.12581010  0.40151197     0.13100
H587        H  0.79868419  0.06468391  0.34192830     0.13100
N588        N  0.07406772  0.86202918  0.28552823    -0.03200
C589        C  0.06778940  0.85397970  0.33327639    -0.00600
C590        C  0.08303513  0.89375841  0.35966566    -0.23500
C591        C  0.10314931  0.92557168  0.32676906    -0.23700
C592        C  0.09938157  0.90386827  0.28149879    -0.00700
H593        H  0.08701057  0.89579547  0.39860769     0.13100
H594        H  0.12624622  0.95606972  0.33608824     0.13100
O595        O  0.85573000  0.70317046  0.57846945    -0.80600
O596        O  0.91903507  0.49770682  0.56960327    -0.65300
O597        O  0.85078225  0.61173038  0.60107600    -1.11900
C598        C  0.98253721  0.62916867  0.72338916     1.06300
O599        O  0.91555447  0.50696877  0.64523472    -0.78500
O600        O  0.91531015  0.55212612  0.72634647    -0.66100
Ni601      Ni  0.84818525  0.64280123  0.54060236     1.34900
C602        C  0.86918593  0.55585327  0.72726435     0.85000
O603        O  0.83273395  0.52429651  0.55737565    -0.79000
O604        O  0.83748474  0.57921512  0.50106500    -0.89300
C605        C  0.94101767  0.50313669  0.60717954     0.84600
O606        O  0.91909450  0.64711577  0.52198851    -0.67500
O607        O  0.99928499  0.60379525  0.68999353    -0.86800
C608        C  0.94440389  0.60914314  0.51286500     0.85400
C609        C  0.82952368  0.53416664  0.51421345     1.07000
H610        H  0.95523682  0.60764458  0.61012841     0.38800
O611        O  0.93099302  0.59002575  0.62856709    -1.09500
O612        O  0.84960680  0.58808847  0.69903173    -0.66100
Ni613      Ni  0.89105974  0.63360334  0.65653136     1.26300
O614        O  0.92674638  0.56973298  0.52912675    -0.66300
O615        O  0.93742362  0.64660109  0.71703751    -0.78600
C616        C  0.85378968  0.71836790  0.62321083     0.84800
O617        O  0.85312332  0.69103139  0.66139803    -0.65800
Ni618      Ni  0.95781416  0.55145216  0.67289240     1.27400
Ni619      Ni  0.88473196  0.55506574  0.58746703     1.26100
H620        H  0.81780230  0.60441973  0.61176008     0.39400
O621        O  0.07966362  0.32143962  0.58216026    -0.80600
O622        O  0.01483717  0.52656376  0.56983990    -0.65300
O623        O  0.08302874  0.41374710  0.60318874    -1.11900
C624        C  0.94827819  0.39895979  0.72317746     1.06300
O625        O  0.01687501  0.51989236  0.64560745    -0.78500
O626        O  0.01547157  0.47584292  0.72649430    -0.66100
Ni627      Ni  0.08787186  0.38087505  0.54344617     1.34900
C628        C  0.06157464  0.47237898  0.72761693     0.85000
O629        O  0.10169679  0.50016866  0.55901477    -0.79000
O630        O  0.09938297  0.44355015  0.50330620    -0.89300
C631        C  0.99209372  0.52271151  0.60728118     0.84600
O632        O  0.01751688  0.37554010  0.52365480    -0.67500
O633        O  0.93227889  0.42373412  0.68946839    -0.86800
C634        C  0.99215697  0.41308676  0.51379654     0.85400
C635        C  0.10670818  0.48903517  0.51611840     1.07000
H636        H  0.97800806  0.41811678  0.61033150     0.38800
O637        O  0.00191127  0.43605280  0.62901565    -1.09500
O638        O  0.08169541  0.43957194  0.70001749    -0.66100
Ni639      Ni  0.04127662  0.39303763  0.65779199     1.26300
O640        O  0.00913175  0.45312529  0.52970191    -0.66300
O641        O  0.99351680  0.38140258  0.71760290    -0.78600
C642        C  0.08029849  0.30777643  0.62726084     0.84800
O643        O  0.07974361  0.33648103  0.66478208    -0.65800
Ni644      Ni  0.97414092  0.47568482  0.67271089     1.27400
Ni645      Ni  0.04913818  0.46992663  0.58852859     1.26100
H646        H  0.11561813  0.42152830  0.61454583     0.39400
N647        N  0.07282667  0.15563183  0.70846758    -0.03200
C648        C  0.06709334  0.16549551  0.66101467    -0.00600
C649        C  0.07630232  0.12470787  0.63334887    -0.23500
C650        C  0.09108336  0.08919994  0.66524775    -0.23700
C651        C  0.09070360  0.10981711  0.71138878    -0.00700
H652        H  0.07814395  0.12264979  0.59423535     0.13100
H653        H  0.10693042  0.05458230  0.65492938     0.13100
N654        N  0.85145117  0.87221090  0.70040337    -0.03200
C655        C  0.85839618  0.86208519  0.65294594    -0.00600
C656        C  0.84009901  0.89922614  0.62503865    -0.23500
C657        C  0.81783717  0.93144830  0.65682300    -0.23700
C658        C  0.82336173  0.91260921  0.70295342    -0.00700
H659        H  0.83576081  0.89888581  0.58606366     0.13100
H660        H  0.79256310  0.95992194  0.64648562     0.13100
O661        O  0.66716138  0.59144859  0.88973582    -0.80600
O662        O  0.45829474  0.58143016  0.95187904    -0.65300
O663        O  0.57359093  0.61298403  0.88517437    -1.11900
C664        C  0.58965372  0.73464408  0.01646558     1.06300
O665        O  0.46619277  0.65703313  0.94953134    -0.78500
O666        O  0.51141092  0.73773278  0.95029800    -0.66100
Ni667      Ni  0.60643503  0.55299630  0.88206049     1.34900
C668        C  0.51538813  0.73863347  0.90486242     0.85000
O669        O  0.48585826  0.56923308  0.86654990    -0.79000
O670        O  0.54253996  0.51317792  0.87103217    -0.89300
C671        C  0.46265234  0.61899519  0.97415203     0.84600
O672        O  0.61083672  0.53488174  0.95196990    -0.67500
O673        O  0.56416867  0.70138331  0.03269336    -0.86800
C674        C  0.57238095  0.52552947  0.97667320     0.85400
C675        C  0.49663049  0.52613577  0.86311550     1.07000
H676        H  0.56882379  0.62179253  0.98847182     0.38800
O677        O  0.55085070  0.64021813  0.96467281    -1.09500
O678        O  0.54832235  0.71039348  0.88532684    -0.66100
Ni679      Ni  0.59488822  0.66805336  0.92566866     1.26300
O680        O  0.53209728  0.54109329  0.95904664    -0.66300
O681        O  0.60742070  0.72828942  0.97199444    -0.78600
C682        C  0.68113957  0.63650524  0.88786144     0.84800
O683        O  0.65220227  0.67401693  0.88779550    -0.65800
Ni684      Ni  0.51117787  0.68444758  0.99158523     1.27400
Ni685      Ni  0.51625262  0.59930615  0.91835827     1.26100
H686        H  0.56613087  0.62371010  0.85275623     0.39400
O687        O  0.27910574  0.59561991  0.11195735    -0.80600
O688        O  0.48675493  0.58179618  0.04664132    -0.65300
O689        O  0.37245902  0.61629058  0.11438076    -1.11900
C690        C  0.35635865  0.73623825  0.98258091     1.06300
O691        O  0.47913735  0.65752887  0.04935299    -0.78500
O692        O  0.43456891  0.73901155  0.04862869    -0.66100
Ni693      Ni  0.33981604  0.55659122  0.11859699     1.34900
C694        C  0.43098667  0.74052144  0.09409026     0.85000
O695        O  0.46029216  0.57227401  0.13241979    -0.79000
O696        O  0.40385709  0.51637811  0.12931842    -0.89300
C697        C  0.48237062  0.61915945  0.02456020     0.84600
O698        O  0.33436373  0.53681624  0.04876347    -0.67500
O699        O  0.38150519  0.70230326  0.96629662    -0.86800
C700        C  0.37261371  0.52666423  0.02373887     0.85400
C701        C  0.44973985  0.52939321  0.13689317     1.07000
H702        H  0.37622649  0.62302691  0.01073882     0.38800
O703        O  0.39439427  0.64165473  0.03440655    -1.09500
O704        O  0.39808380  0.71301306  0.11380687    -0.66100
Ni705      Ni  0.35092757  0.67087064  0.07381279     1.26300
O706        O  0.41299544  0.54233321  0.04089626    -0.66300
O707        O  0.33869401  0.73070650  0.02720262    -0.78600
C708        C  0.26519637  0.64085572  0.11424397     0.84800
O709        O  0.29403519  0.67821895  0.11263229    -0.65800
Ni710      Ni  0.43427947  0.68501205  0.00741044     1.27400
Ni711      Ni  0.42931923  0.60130540  0.08070182     1.26100
H712        H  0.38036945  0.62764602  0.14661713     0.39400
N713        N  0.11070016  0.72456613  0.10146316    -0.03200
C714        C  0.12132784  0.67646285  0.09918961    -0.00600
C715        C  0.08168600  0.64972367  0.11458933    -0.23500
C716        C  0.04758879  0.68241296  0.13194926    -0.23700
C717        C  0.06798156  0.72801377  0.12715082    -0.00700
H718        H  0.08138142  0.61115651  0.12132877     0.13100
H719        H  0.01708869  0.67309886  0.15535876     0.13100
N720        N  0.82554087  0.72723910  0.87780100    -0.03200
C721        C  0.82222358  0.67959136  0.88758744    -0.00600
C722        C  0.86409819  0.65584532  0.87193407    -0.23500
C723        C  0.89255302  0.69007397  0.84880015    -0.23700
C724        C  0.86691426  0.73349599  0.85150922    -0.00700
H725        H  0.86992563  0.61711545  0.87100086     0.13100
H726        H  0.92382669  0.68221439  0.82565904     0.13100
O727        O  0.54373594  0.91067033  0.68494410    -0.80600
O728        O  0.52539231  0.97710770  0.48649828    -0.65300
O729        O  0.56917212  0.90333433  0.59133042    -1.11900
C730        C  0.69892876  0.01707242  0.59043618     1.06300
O731        O  0.59724846  0.96712295  0.46723117    -0.78500
O732        O  0.65007280  0.91066695  0.50697166    -0.66100
Ni733      Ni  0.50659968  0.90246433  0.62450280     1.34900
C734        C  0.68292873  0.89467149  0.53283408     0.85000
O735        O  0.52014586  0.88725926  0.50630105    -0.79000
O736        O  0.46471740  0.89220794  0.56260223    -0.89300
C737        C  0.56413974  0.99630780  0.47800891     0.84600
O738        O  0.48670619  0.97198942  0.63087607    -0.67500
O739        O  0.70200615  0.98957932  0.55349491    -0.86800
C740        C  0.47923524  0.99838112  0.59397823     0.85400
C741        C  0.47701150  0.88383615  0.51736849     1.07000
H742        H  0.59209919  0.00858817  0.57641396     0.38800
O743        O  0.60303491  0.97929809  0.56007260    -1.09500
O744        O  0.67747569  0.90475626  0.57911511    -0.66100
Ni745      Ni  0.62246122  0.94664633  0.61225274     1.26300
O746        O  0.49776360  0.98286896  0.55435346    -0.66300
O747        O  0.67151191  0.00168165  0.62605568    -0.78600
C748        C  0.58853628  0.91347286  0.70035753     0.84800
O749        O  0.62721917  0.91641808  0.67331976    -0.65800
Ni750      Ni  0.64936057  0.97923044  0.50832078     1.27400
Ni751      Ni  0.55278393  0.93757428  0.53579234     1.26100
H752        H  0.58092373  0.87109945  0.58357101     0.39400
O753        O  0.53892203  0.12745799  0.30148047    -0.80600
O754        O  0.54587812  0.07306365  0.51112404    -0.65300
O755        O  0.56394285  0.13322176  0.39239245    -1.11900
C756        C  0.68463664  0.00073468  0.36959840     1.06300
O757        O  0.62126660  0.05544531  0.50456657    -0.78500
O758        O  0.69181636  0.06993986  0.44625051    -0.66100
Ni759      Ni  0.50226261  0.13667956  0.36311740     1.34900
C760        C  0.68866476  0.11627655  0.44505990     0.85000
O761        O  0.52328671  0.15443992  0.48176122    -0.79000
O762        O  0.46456956  0.14843954  0.42803347    -0.89300
C763        C  0.57710209  0.04236037  0.50343077     0.84600
O764        O  0.48422371  0.06729622  0.36024605    -0.67500
O765        O  0.64806228  0.98676480  0.39086969    -0.86800
C766        C  0.47682737  0.04302052  0.39855357     0.85400
C767        C  0.47905318  0.15695616  0.47284194     1.07000
H768        H  0.57377163  0.03373119  0.39878645     0.38800
O769        O  0.59467651  0.05571497  0.41664618    -1.09500
O770        O  0.65977475  0.13461980  0.41326401    -0.66100
Ni771      Ni  0.61912788  0.09231107  0.36952114     1.26300
O772        O  0.49483960  0.06080204  0.43785100    -0.66300
O773        O  0.68130954  0.04639305  0.35535033    -0.78600
C774        C  0.58417904  0.12781716  0.28573274     0.84800
O775        O  0.62316131  0.12889191  0.31259106    -0.65800
Ni776      Ni  0.64103146  0.02197185  0.45022886     1.27400
Ni777      Ni  0.55478042  0.10276622  0.45123158     1.26100
H778        H  0.57519651  0.16596240  0.39801082     0.39400
N779        N  0.67576978  0.12459602  0.14219769    -0.03200
C780        C  0.62718510  0.11604033  0.14669652    -0.00600
C781        C  0.60318659  0.12961716  0.10506842    -0.23500
C782        C  0.63811595  0.15051846  0.07549742    -0.23700
C783        C  0.68233708  0.14836432  0.10012482    -0.00700
H784        H  0.56388496  0.13089745  0.09996307     0.13100
H785        H  0.63035881  0.17204257  0.04377931     0.13100
N786        N  0.67341599  0.89918641  0.84681966    -0.03200
C787        C  0.62543745  0.91028843  0.84132722    -0.00600
C788        C  0.59896627  0.89508218  0.88104868    -0.23500
C789        C  0.63192931  0.87123627  0.91061410    -0.23700
C790        C  0.67735942  0.87329460  0.88789361    -0.00700
H791        H  0.55940040  0.89520147  0.88481440     0.13100
H792        H  0.62226528  0.84860359  0.94102922     0.13100
C793        C  0.59134360  0.12127765  0.23471751    -0.13000
C794        C  0.60326842  0.11474378  0.19313263    -0.14500
C795        C  0.60416688  0.91778542  0.79438232    -0.13000
C796        C  0.59486189  0.91625334  0.75177903    -0.14500
C797        C  0.79483553  0.80450807  0.91153417    -0.13100
C798        C  0.78697691  0.76273881  0.88329360     0.09100
C799        C  0.74244953  0.75730229  0.85852240    -0.13100
C800        C  0.70577520  0.79224919  0.86308225    -0.13100
C801        C  0.71350588  0.83390176  0.89135251     0.09100
C802        C  0.75825441  0.84018707  0.91540103    -0.13100
H803        H  0.82957536  0.80962336  0.92983492     0.13100
H804        H  0.73665853  0.72677351  0.83445029     0.13100
H805        H  0.67204099  0.78792880  0.84275749     0.13100
H806        H  0.76523359  0.87301416  0.93593266     0.13100
C807        C  0.21327775  0.64929908  0.11282120    -0.13000
C808        C  0.17049416  0.65818114  0.10578417    -0.14500
C809        C  0.73293350  0.64488747  0.89053299    -0.13000
C810        C  0.77553067  0.65616787  0.89314890    -0.14500
C811        C  0.82581465  0.79700548  0.73972553    -0.13100
C812        C  0.85642664  0.83755491  0.73871304     0.09100
C813        C  0.89222298  0.84372137  0.77476070    -0.13100
C814        C  0.89750662  0.80914270  0.81138921    -0.13100
C815        C  0.86732642  0.76817661  0.81141976     0.09100
C816        C  0.83202550  0.76208702  0.77502083    -0.13100
H817        H  0.79725265  0.79238552  0.71289474     0.13100
H818        H  0.91569241  0.87528101  0.77447122     0.13100
H819        H  0.92427818  0.81462091  0.83982593     0.13100
H820        H  0.80816742  0.73076437  0.77487236     0.13100
C821        C  0.74116188  0.88781445  0.72934144    -0.13100
C822        C  0.78320206  0.91553116  0.73860924     0.09100
C823        C  0.78973999  0.93663085  0.78445070    -0.13100
C824        C  0.75340514  0.93132738  0.82013108    -0.13100
C825        C  0.71116434  0.90385178  0.81050611     0.09100
C826        C  0.70620077  0.88091393  0.76537971    -0.13100
H827        H  0.73680533  0.86929228  0.69485165     0.13100
H828        H  0.82305501  0.95628649  0.79274537     0.13100
H829        H  0.75821512  0.94818753  0.85533732     0.13100
H830        H  0.67554948  0.85710777  0.75827750     0.13100
C831        C  0.06923286  0.21426112  0.64279541    -0.13000
C832        C  0.07584381  0.25669726  0.63513247    -0.14500
C833        C  0.85738320  0.76976113  0.62967598    -0.13000
C834        C  0.86162875  0.81281381  0.63575795    -0.14500
C835        C  0.03359690  0.83216928  0.21128286    -0.13100
C836        C  0.06920882  0.82632683  0.24754745     0.09100
C837        C  0.10138817  0.78665589  0.24527122    -0.13100
C838        C  0.09952416  0.75450737  0.20641895    -0.13100
C839        C  0.06491157  0.76085325  0.16944879     0.09100
C840        C  0.03076490  0.79891573  0.17270703    -0.13100
H841        H  0.00853452  0.86271094  0.21273606     0.13100
H842        H  0.12901456  0.78138273  0.27282080     0.13100
H843        H  0.12587587  0.72499315  0.20459990     0.13100
H844        H  0.00374504  0.80407355  0.14447520     0.13100
C845        C  0.79099303  0.08594556  0.20560380    -0.13100
C846        C  0.78541321  0.10964672  0.25032831     0.09100
C847        C  0.74366539  0.13841541  0.25906742    -0.13100
C848        C  0.70814906  0.14403050  0.22344139    -0.13100
C849        C  0.71252328  0.11915719  0.17921987     0.09100
C850        C  0.75434717  0.09034627  0.17031168    -0.13100
H851        H  0.82396770  0.06522341  0.19768874     0.13100
H852        H  0.74000886  0.15873976  0.29266373     0.13100
H853        H  0.67810487  0.16902981  0.22983894     0.13100
H854        H  0.75877825  0.07202002  0.13573555     0.13100
C855        C  0.07679596  0.76383013  0.36155253    -0.13000
C856        C  0.06894676  0.80575717  0.35252129    -0.14500
C857        C  0.85771167  0.25619734  0.36093484    -0.13000
C858        C  0.86283248  0.21349939  0.35262564    -0.14500
C859        C  0.74693886  0.26323792  0.13231851    -0.13100
C860        C  0.78986103  0.26029969  0.10425908     0.09100
C861        C  0.79715340  0.22019628  0.07334560    -0.13100
C862        C  0.76143489  0.18387114  0.06997510    -0.13100
C863        C  0.71820505  0.18784032  0.09736040     0.09100
C864        C  0.71108313  0.22784390  0.12821321    -0.13100
H865        H  0.74172837  0.29223060  0.15841849     0.13100
H866        H  0.83075128  0.21691517  0.05244605     0.13100
H867        H  0.76790235  0.15244637  0.04707262     0.13100
H868        H  0.67840410  0.23059378  0.15065005     0.13100
C869        C  0.89708862  0.21297225  0.17310408    -0.13100
C870        C  0.87032200  0.25637549  0.17465390     0.09100
C871        C  0.83733121  0.26537580  0.21284407    -0.13100
C872        C  0.83015966  0.23113576  0.24857036    -0.13100
C873        C  0.85795430  0.18845149  0.24838949     0.09100
C874        C  0.89120320  0.17916679  0.21032734    -0.13100
H875        H  0.92167331  0.20511324  0.14310253     0.13100
H876        H  0.81559328  0.29835872  0.21384392     0.13100
H877        H  0.80285148  0.23786166  0.27643670     0.13100
H878        H  0.91223561  0.14579001  0.20954785     0.13100
C879        C  0.03178697  0.22871014  0.81652772    -0.13100
C880        C  0.06714398  0.26536622  0.81653394     0.09100
C881        C  0.10325985  0.26606154  0.78016568    -0.13100
C882        C  0.10674152  0.22858247  0.74655676    -0.13100
C883        C  0.07171097  0.19172836  0.74623862     0.09100
C884        C  0.03339543  0.19256259  0.78056631    -0.13100
H885        H  0.00360636  0.22785522  0.84429272     0.13100
H886        H  0.12989587  0.29503960  0.77885000     0.13100
H887        H  0.13618953  0.22868766  0.72007723     0.13100
H888        H  0.00556287  0.16466564  0.77993088     0.13100
C889        C  0.73108770  0.37669606  0.10858773    -0.13000
C890        C  0.77371330  0.36664616  0.10212819    -0.14500
C891        C  0.21666853  0.37387375  0.88711463    -0.13000
C892        C  0.17324716  0.36689338  0.89140022    -0.14500
C893        C  0.21018457  0.08049433  0.77185990    -0.13100
C894        C  0.20236045  0.10167972  0.81793460     0.09100
C895        C  0.15307710  0.10850422  0.83263332    -0.13100
C896        C  0.11477820  0.10516069  0.79916590    -0.13100
C897        C  0.12489292  0.09467108  0.75039767     0.09100
C898        C  0.17221049  0.07834859  0.73806826    -0.13100
H899        H  0.24561466  0.06687268  0.76066563     0.13100
H900        H  0.14375533  0.11749136  0.86957369     0.13100
H901        H  0.07775056  0.11324954  0.81098743     0.13100
H902        H  0.18090538  0.06721007  0.70139381     0.13100
C903        C  0.18783711  0.25937091  0.85899162    -0.13100
C904        C  0.14660681  0.26357651  0.88917859     0.09100
C905        C  0.13768088  0.22795925  0.92420300    -0.13100
C906        C  0.16924856  0.18784048  0.92808637    -0.13100
C907        C  0.20872233  0.18259252  0.89564136     0.09100
C908        C  0.21829251  0.21914068  0.86191774    -0.13100
H909        H  0.19561882  0.28653938  0.83204607     0.13100
H910        H  0.10600276  0.23104964  0.94787564     0.13100
H911        H  0.16161498  0.16001071  0.95446937     0.13100
H912        H  0.24894833  0.21587186  0.83692224     0.13100
C913        C  0.17570375  0.93698109  0.17180135    -0.13100
C914        C  0.21192727  0.90054387  0.17377143     0.09100
C915        C  0.21263567  0.86868340  0.21286011    -0.13100
C916        C  0.17806085  0.87332184  0.24964771    -0.13100
C917        C  0.13977195  0.90728356  0.24617302     0.09100
C918        C  0.13877696  0.93954712  0.20731515    -0.13100
H919        H  0.17554186  0.96246219  0.14217377     0.13100
H920        H  0.24060795  0.84079253  0.21517164     0.13100
H921        H  0.18006400  0.84908498  0.28024876     0.13100
H922        H  0.10950061  0.96602230  0.20427456     0.13100
C923        C  0.12672613  0.81337721  0.09312979    -0.13100
C924        C  0.14246178  0.76489275  0.08766179     0.09100
C925        C  0.18930317  0.75750799  0.06667386    -0.13100
C926        C  0.22313910  0.79527348  0.06446190    -0.13100
C927        C  0.20975973  0.84213124  0.07960016     0.09100
C928        C  0.16001605  0.85156122  0.08910340    -0.13100
H929        H  0.08902495  0.82219231  0.10135090     0.13100
H930        H  0.20108963  0.72281823  0.05287463     0.13100
H931        H  0.26051862  0.78691131  0.05379819     0.13100
H932        H  0.14717431  0.88808298  0.09561922     0.13100
C933        C  0.32098936  0.13164983  0.75012796    -0.13000
C934        C  0.31078936  0.12164933  0.79150061    -0.14500
C935        C  0.32420361  0.90602363  0.24013568    -0.13000
C936        C  0.31639651  0.90881192  0.19722115    -0.14500
C937        C  0.26828750  0.40655274  0.13887811    -0.13000
C938        C  0.22555105  0.40097802  0.12917542    -0.14500
C939        C  0.71117926  0.62497656  0.14269068    -0.13000
C940        C  0.66972410  0.61517657  0.15458173    -0.14500
C941        C  0.69603881  0.57800849  0.25381616    -0.13100
C942        C  0.64894506  0.59756463  0.26333934     0.09100
C943        C  0.63588204  0.60391009  0.31252170    -0.13100
C944        C  0.67135870  0.60141760  0.34900045    -0.13100
C945        C  0.72071202  0.59255071  0.33715047     0.09100
C946        C  0.73183732  0.57700167  0.28990269    -0.13100
H947        H  0.70645109  0.56445016  0.21858164     0.13100
H948        H  0.59859752  0.61154552  0.32322055     0.13100
H949        H  0.66060316  0.60916690  0.38599830     0.13100
H950        H  0.76898621  0.56727113  0.27986743     0.13100
C951        C  0.83133670  0.76009793  0.38038744    -0.13000
C952        C  0.82592019  0.71726327  0.38700739    -0.14500
C953        C  0.82126901  0.27881471  0.59959208    -0.13000
C954        C  0.81445039  0.32185161  0.59671551    -0.14500
C955        C  0.20885891  0.38193217  0.28046520    -0.13100
C956        C  0.21729673  0.41314376  0.31985792     0.09100
C957        C  0.26054166  0.44034462  0.32176039    -0.13100
C958        C  0.29513711  0.43607023  0.28416821    -0.13100
C959        C  0.28663668  0.40447859  0.24491479     0.09100
C960        C  0.24350102  0.37708161  0.24374439    -0.13100
H961        H  0.17604390  0.35984996  0.27916832     0.13100
H962        H  0.26790493  0.46375250  0.35253019     0.13100
H963        H  0.32883256  0.45670888  0.28584680     0.13100
H964        H  0.23724365  0.35091385  0.21508521     0.13100
C965        C  0.09431325  0.27498751  0.38646711    -0.13000
C966        C  0.10528820  0.31677687  0.39282181    -0.14500
C967        C  0.09358147  0.76732698  0.60396461    -0.13000
C968        C  0.10252818  0.72473715  0.59938942    -0.14500
C969        C  0.53929164  0.71908876  0.33110822    -0.13100
C970        C  0.57035460  0.75767179  0.31875572     0.09100
C971        C  0.59708676  0.75540764  0.27534306    -0.13100
C972        C  0.59498227  0.71435465  0.24614444    -0.13100
C973        C  0.56562763  0.67493604  0.25931566     0.09100
C974        C  0.53604361  0.67816201  0.30088925    -0.13100
H975        H  0.51866555  0.72032454  0.36471398     0.13100
H976        H  0.62196088  0.78406575  0.26534679     0.13100
H977        H  0.61770290  0.71257706  0.21384173     0.13100
H978        H  0.51288446  0.64814295  0.31124584     0.13100
C979        C  0.68090223  0.75782924  0.35634248    -0.13100
C980        C  0.64698827  0.75747528  0.39476367     0.09100
C981        C  0.65250712  0.72403031  0.43222923    -0.13100
C982        C  0.69100323  0.69017356  0.43008974    -0.13100
C983        C  0.72279379  0.68890170  0.38983225     0.09100
C984        C  0.71738910  0.72282522  0.35299310    -0.13100
H985        H  0.67875162  0.78511694  0.32849497     0.13100
H986        H  0.62715202  0.72397846  0.46254758     0.13100
H987        H  0.69567703  0.66446378  0.45915911     0.13100
H988        H  0.74220208  0.72265175  0.32223049     0.13100
C989        C  0.28704618  0.72744627  0.57010340    -0.13100
C990        C  0.28422136  0.77105197  0.59623296     0.09100
C991        C  0.24418074  0.77991083  0.62720011    -0.13100
C992        C  0.20753202  0.74555061  0.63248731    -0.13100
C993        C  0.20909938  0.70257817  0.60528103     0.09100
C994        C  0.24921409  0.69342143  0.57431601    -0.13100
H995        H  0.31868348  0.71946291  0.54747428     0.13100
H996        H  0.24260770  0.81264591  0.64910967     0.13100
H997        H  0.17831465  0.75212618  0.65842090     0.13100
H998        H  0.25123584  0.65980902  0.55392003     0.13100
C999        C  0.36474663  0.87629575  0.74299585    -0.13000
C1000       C  0.36754545  0.86935482  0.69989351    -0.14500
C1001       C  0.57134656  0.86362677  0.29688757    -0.13000
C1002       C  0.57836570  0.87328912  0.25499138    -0.14500
C1003       C  0.32815803  0.26016041  0.27820459    -0.13100
C1004       C  0.35840142  0.26129322  0.31908218     0.09100
C1005       C  0.39264632  0.29884489  0.32467434    -0.13100
C1006       C  0.39675484  0.33483275  0.28929812    -0.13100
C1007       C  0.36696072  0.33279911  0.24807754     0.09100
C1008       C  0.33313911  0.29497662  0.24256740    -0.13100
H1009       H  0.30066886  0.23224056  0.27398853     0.13100
H1010       H  0.41584857  0.30020743  0.35644080     0.13100
H1011       H  0.42231940  0.36437453  0.29435646     0.13100
H1012       H  0.30940656  0.29336130  0.21114761     0.13100
C1013       C  0.29181149  0.30649894  0.42465651    -0.13100
C1014       C  0.28763516  0.26215370  0.40007963     0.09100
C1015       C  0.24664432  0.25337409  0.37070123    -0.13100
C1016       C  0.21081440  0.28878883  0.36481131    -0.13100
C1017       C  0.21383556  0.33272648  0.39027868     0.09100
C1018       C  0.25466510  0.34153602  0.42011251    -0.13100
H1019       H  0.32405543  0.31432538  0.44617971     0.13100
H1020       H  0.24387194  0.21991426  0.35009656     0.13100
H1021       H  0.18150758  0.28238827  0.33923937     0.13100
H1022       H  0.25795314  0.37581994  0.43911618     0.13100
C1023       C  0.68169561  0.26242193  0.63556707    -0.13100
C1024       C  0.64120078  0.26703015  0.60468311     0.09100
C1025       C  0.63456110  0.30966069  0.57823359    -0.13100
C1026       C  0.66944153  0.34682590  0.58177554    -0.13100
C1027       C  0.71015631  0.34166808  0.61249944     0.09100
C1028       C  0.71495029  0.29991676  0.64053769    -0.13100
H1029       H  0.68657254  0.23015478  0.65719682     0.13100
H1030       H  0.60258873  0.31420747  0.55544547     0.13100
H1031       H  0.66497376  0.37940869  0.56063542     0.13100
H1032       H  0.74503818  0.29612017  0.66579161     0.13100
C1033       C  0.36054233  0.14809820  0.25537551    -0.13000
C1034       C  0.36509555  0.15677775  0.29800790    -0.14500
C1035       C  0.58084685  0.15311118  0.70476795    -0.13000
C1036       C  0.58755590  0.14429819  0.74692803    -0.14500
C1037       C  0.24045896  0.65147117  0.74826511    -0.13100
C1038       C  0.28255491  0.62241184  0.74380859     0.09100
C1039       C  0.28828903  0.59232453  0.70284484    -0.13100
C1040       C  0.25191990  0.59103325  0.66695711    -0.13100
C1041       C  0.20952919  0.61952906  0.67232243     0.09100
C1042       C  0.20391875  0.64936889  0.71332303    -0.13100
H1043       H  0.23642495  0.67665683  0.77825421     0.13100
H1044       H  0.32119571  0.57052024  0.69853319     0.13100
H1045       H  0.25728943  0.56892342  0.63477598     0.13100
H1046       H  0.17198329  0.67269965  0.71715428     0.13100
C1047       C  0.33536563  0.73035878  0.75087439    -0.13100
C1048       C  0.36548829  0.69024621  0.74061198     0.09100
C1049       C  0.39096624  0.68756895  0.69649274    -0.13100
C1050       C  0.38702687  0.72569282  0.66338955    -0.13100
C1051       C  0.35706111  0.76598451  0.67409685     0.09100
C1052       C  0.33020680  0.76722709  0.71742538    -0.13100
H1053       H  0.31428382  0.73213152  0.78423917     0.13100
H1054       H  0.41310331  0.65603963  0.68756112     0.13100
H1055       H  0.40698008  0.72385874  0.62941689     0.13100
H1056       H  0.30488130  0.79662355  0.72514708     0.13100
C1057       C  0.68470037  0.38217804  0.75637212    -0.13100
C1058       C  0.64058457  0.40840872  0.75518852     0.09100
C1059       C  0.63200637  0.44090515  0.71720825    -0.13100
C1060       C  0.66741897  0.44698750  0.68075503    -0.13100
C1061       C  0.71194708  0.42149320  0.68308227     0.09100
C1062       C  0.72063270  0.38979030  0.72155070    -0.13100
H1063       H  0.69109815  0.35535914  0.78404354     0.13100
H1064       H  0.59771544  0.46084140  0.71560055     0.13100
H1065       H  0.65969999  0.47038444  0.65037517     0.13100
H1066       H  0.75428069  0.36870542  0.72294224     0.13100
C1067       C  0.53390254  0.33407666  0.71297500    -0.13100
C1068       C  0.56287129  0.33388660  0.75480184     0.09100
C1069       C  0.59665042  0.29622601  0.76220784    -0.13100
C1070       C  0.60245032  0.25969593  0.72785810    -0.13100
C1071       C  0.57299397  0.25883251  0.68635567     0.09100
C1072       C  0.53884345  0.29638810  0.67888639    -0.13100
H1073       H  0.50848989  0.36356260  0.70635689     0.13100
H1074       H  0.62005617  0.29627127  0.79390843     0.13100
H1075       H  0.63099797  0.23289297  0.73304577     0.13100
H1076       H  0.51678312  0.29674845  0.64631480     0.13100
C1077       C  0.70487788  0.40961504  0.86645221    -0.13000
C1078       C  0.66141236  0.41404183  0.85950653    -0.14500
C1079       C  0.22467383  0.61990869  0.86066698    -0.13000
C1080       C  0.26728174  0.61477535  0.84982598    -0.14500
loop_ 
_geom_bond_atom_site_label_1 
_geom_bond_atom_site_label_2 
_geom_bond_distance 
_geom_bond_site_symmetry_2 
_ccdc_geom_bond_type 
O1           Ni7   1.848   1_655  S
O1           C22   1.260       .  A
O2          Ni25   1.882       .  S
O2           C11   1.298       .  A
O3           Ni7   1.782       .  S
O3          Ni25   1.786       .  S
O3          Ni19   1.945       .  S
O3           H26   0.966       .  S
C4           O21   1.227       .  A
C4           O13   1.318   1_655  A
C4          C334   1.516   1_556  S
O5          Ni24   1.979       .  S
O5           C11   1.303       .  A
O6          Ni24   2.001       .  S
O6            C8   1.275       .  A
Ni7          O10   1.893       .  S
Ni7          O12   1.868       .  S
C8           O18   1.276       .  A
C8          C364   1.580   1_556  S
O9          Ni25   2.118       .  S
O9           C15   1.327       .  A
O10          C15   1.237       .  A
C11        C1079   1.431       .  S
O12          C14   1.259       .  A
O13         Ni24   2.085       .  S
C14          O20   1.300       .  A
C14         C598   1.539   1_455  S
C15         C628   1.532       .  S
H16          O17   0.966       .  S
O17         Ni25   1.972       .  S
O17         Ni19   1.849       .  S
O17         Ni24   1.881       .  S
O18         Ni19   2.016       .  S
Ni19         O23   1.893   1_455  S
Ni19         O21   1.848   1_455  S
O20         Ni25   2.060       .  S
C22          O23   1.208       .  A
C22          C48   1.495       .  S
O27         Ni33   1.848       .  S
O27          C48   1.259       .  A
O28         Ni51   1.892       .  S
O28          C37   1.301       .  A
O29         Ni33   1.787       .  S
O29         Ni51   1.788       .  S
O29         Ni45   1.949       .  S
O29          H52   0.968       .  S
C30          O47   1.227       .  A
C30          O39   1.317       .  A
C30         C360   1.516   1_556  S
O31         Ni50   1.970       .  S
O31          C37   1.301       .  A
O32         Ni50   1.998       .  S
O32          C34   1.273       .  A
Ni33         O36   1.895       .  S
Ni33         O38   1.870       .  S
C34          O44   1.275       .  A
C34         C338   1.576   1_556  S
O35         Ni51   2.127       .  S
O35          C41   1.330       .  A
O36          C41   1.238       .  A
C37        C1077   1.432       .  S
O38          C40   1.259       .  A
O39         Ni50   2.084       .  S
C40          O46   1.299       .  A
C40         C624   1.539       .  S
C41         C602   1.542       .  S
H42          O43   0.966       .  S
O43         Ni51   1.976       .  S
O43         Ni45   1.847       .  S
O43         Ni50   1.883       .  S
O44         Ni45   2.011       .  S
Ni45         O49   1.896       .  S
Ni45         O47   1.848       .  S
O46         Ni51   2.058       .  S
C48          O49   1.207       .  A
N53          C57   1.351       .  A
N53          C54   1.349       .  A
N53        C1058   1.439       .  S
C54        C1078   1.438       .  S
C54          C55   1.377       .  A
C55          C56   1.381       .  A
C55          H58   1.081       .  S
C56          C57   1.386       .  A
C56          H59   1.083       .  S
C57        C1068   1.469       .  S
N60          C64   1.351       .  A
N60          C61   1.350       .  A
N60        C1038   1.440       .  S
C61        C1080   1.437       .  S
C61          C62   1.379       .  A
C62          C63   1.381       .  A
C62          H65   1.082       .  S
C63          C64   1.387       .  A
C63          H66   1.083       .  S
C64        C1048   1.468       .  S
O67         Ni73   1.848   1_554  S
O67          C88   1.260       .  A
O68         Ni91   1.886       .  S
O68          C77   1.299       .  A
O69         Ni73   1.784       .  S
O69         Ni91   1.786       .  S
O69         Ni85   1.948       .  S
O69          H92   0.967       .  S
C70          O87   1.228       .  A
C70          O79   1.317       .  A
C70         C136   1.516   1_546  S
O71         Ni90   1.975       .  S
O71          C77   1.303       .  A
O72         Ni90   2.000       .  S
O72          C74   1.275       .  A
Ni73         O76   1.894       .  S
Ni73         O78   1.868       .  S
C74          O84   1.275       .  A
C74         C166   1.578   1_545  S
O75         Ni91   2.125       .  S
O75          C81   1.329       .  A
O76          C81   1.237       .  A
C77        C1036   1.431       .  S
O78          C80   1.258       .  A
O79         Ni90   2.082       .  S
C80          O86   1.299       .  A
C80         C492   1.537       .  S
C81         C470   1.538       .  S
H82          O83   0.966       .  S
O83         Ni91   1.976       .  S
O83         Ni85   1.849       .  S
O83         Ni90   1.882       .  S
O84         Ni85   2.013       .  S
Ni85         O89   1.893   1_556  S
Ni85         O87   1.850       .  S
O86         Ni91   2.057       .  S
C88          O89   1.208       .  A
C88         C114   1.494   1_554  S
O93         Ni99   1.849   1_556  S
O93         C114   1.259       .  A
O94        Ni117   1.888       .  S
O94         C103   1.299       .  A
O95         Ni99   1.786       .  S
O95        Ni117   1.788       .  S
O95        Ni111   1.948       .  S
O95         H118   0.967       .  S
C96         O113   1.227       .  A
C96         O105   1.318       .  A
C96         C162   1.516   1_544  S
O97        Ni116   1.978       .  S
O97         C103   1.304       .  A
O98        Ni116   1.999       .  S
O98         C100   1.275       .  A
Ni99        O102   1.894       .  S
Ni99        O104   1.869       .  S
C100        O110   1.275       .  A
C100        C140   1.577   1_545  S
O101       Ni117   2.125       .  S
O101        C107   1.329       .  A
O102        C107   1.237       .  A
C103       C1033   1.434       .  S
O104        C106   1.259       .  A
O105       Ni116   2.085       .  S
C106        O112   1.298       .  A
C106        C466   1.537       .  S
C107        C496   1.539       .  S
H108        O109   0.966       .  S
O109       Ni117   1.974       .  S
O109       Ni111   1.848       .  S
O109       Ni116   1.881       .  S
O110       Ni111   2.011       .  S
Ni111       O115   1.895   1_554  S
Ni111       O113   1.847       .  S
O112       Ni117   2.056       .  S
C114        O115   1.208       .  A
N119        C123   1.351       .  A
N119        C120   1.350       .  A
N119       C1071   1.441       .  S
C120       C1035   1.438       .  S
C120        C121   1.379       .  A
C121        C122   1.381       .  A
C121        H124   1.083       .  S
C122        C123   1.387       .  A
C122        H125   1.083       .  S
C123       C1024   1.469       .  S
N126        C130   1.351       .  A
N126        C127   1.349       .  A
N126       C1004   1.438       .  S
C127       C1034   1.440       .  S
C127        C128   1.378       .  A
C128        C129   1.382       .  A
C128        H131   1.081       .  S
C129        C130   1.386       .  A
C129        H132   1.083       .  S
C130       C1014   1.470       .  S
O133       Ni139   1.849   1_556  S
O133        C154   1.259       .  A
O134       Ni157   1.879       .  S
O134        C143   1.297       .  A
O135       Ni139   1.784       .  S
O135       Ni157   1.786       .  S
O135       Ni151   1.949       .  S
O135        H158   0.967       .  S
C136        O153   1.228       .  A
C136        O145   1.318   1_565  A
O137       Ni156   1.979       .  S
O137        C143   1.304       .  A
O138       Ni156   2.000       .  S
O138        C140   1.275       .  A
Ni139       O142   1.895       .  S
Ni139       O144   1.869       .  S
C140        O150   1.275       .  A
O141       Ni157   2.120       .  S
O141        C147   1.327       .  A
O142        C147   1.238       .  A
C143       C1002   1.430       .  S
O144        C146   1.259       .  A
O145       Ni156   2.085   1_545  S
C146        O152   1.298       .  A
C146        C664   1.535       .  S
C147        C694   1.535       .  S
H148        O149   0.966       .  S
O149       Ni157   1.972       .  S
O149       Ni151   1.848       .  S
O149       Ni156   1.880       .  S
O150       Ni151   2.011       .  S
Ni151       O155   1.895   1_554  S
Ni151       O153   1.847       .  S
O152       Ni157   2.054       .  S
C154        O155   1.208       .  A
C154        C180   1.496   1_556  S
O159       Ni165   1.848   1_554  S
O159        C180   1.260       .  A
O160       Ni183   1.891       .  S
O160        C169   1.301       .  A
O161       Ni165   1.785       .  S
O161       Ni183   1.787       .  S
O161       Ni177   1.949       .  S
O161        H184   0.966       .  S
C162        O179   1.227       .  A
C162        O171   1.317   1_565  A
O163       Ni182   1.974       .  S
O163        C169   1.302       .  A
O164       Ni182   2.000       .  S
O164        C166   1.275       .  A
Ni165       O168   1.894       .  S
Ni165       O170   1.870       .  S
C166        O176   1.275       .  A
O167       Ni183   2.122       .  S
O167        C173   1.328       .  A
O168        C173   1.238       .  A
C169        C999   1.433       .  S
O170        C172   1.259       .  A
O171       Ni182   2.084   1_545  S
C172        O178   1.301       .  A
C172        C690   1.541       .  S
C173        C668   1.536       .  S
H174        O175   0.966       .  S
O175       Ni183   1.975       .  S
O175       Ni177   1.848       .  S
O175       Ni182   1.883       .  S
O176       Ni177   2.015       .  S
Ni177       O181   1.896   1_556  S
Ni177       O179   1.848       .  S
O178       Ni183   2.061       .  S
C180        O181   1.207       .  A
N185        C189   1.350       .  A
N185        C186   1.350       .  A
N185       C1051   1.439       .  S
C186       C1000   1.439       .  S
C186        C187   1.380       .  A
C187        C188   1.381       .  A
C187        H190   1.083       .  S
C188        C189   1.387       .  A
C188        H191   1.083       .  S
C189        C990   1.468       .  S
N192        C196   1.352       .  A
N192        C193   1.349       .  A
N192        C970   1.440       .  S
C193       C1001   1.435       .  S
C193        C194   1.378       .  A
C194        C195   1.380       .  A
C194        H197   1.080       .  S
C195        C196   1.381       .  A
C195        H198   1.079       .  S
C196        C980   1.470       .  S
O199       Ni205   1.848   1_545  S
O199        C220   1.260       .  A
O200       Ni223   1.887       .  S
O200        C209   1.299       .  A
O201       Ni205   1.783       .  S
O201       Ni223   1.788       .  S
O201       Ni217   1.944       .  S
O201        H224   0.966       .  S
C202        O219   1.228   1_665  A
C202        O211   1.316       .  A
C202        C268   1.513   1_565  S
O203       Ni222   1.975   1_455  S
O203        C209   1.302       .  A
O204       Ni222   1.995       .  S
O204        C206   1.274       .  A
Ni205       O208   1.894       .  S
Ni205       O210   1.866       .  S
C206        O216   1.273       .  A
C206        C298   1.569       .  S
O207       Ni223   2.117       .  S
O207        C213   1.326       .  A
O208        C213   1.238       .  A
C209        C967   1.432       .  S
O210        C212   1.258       .  A
O211       Ni222   2.082       .  S
C212        O218   1.301       .  A
C212        C426   1.538   1_565  S
C213        C404   1.532       .  S
H214        O215   0.967       .  S
O215       Ni223   1.974       .  S
O215       Ni217   1.849       .  S
O215       Ni222   1.885   1_455  S
O216       Ni217   2.007   1_655  S
Ni217       O221   1.896   1_565  S
Ni217       O219   1.847   1_565  S
O218       Ni223   2.060       .  S
C220        O221   1.209       .  A
C220        C246   1.500       .  S
O225       Ni231   1.846       .  S
O225        C246   1.259       .  A
O226       Ni249   1.881       .  S
O226        C235   1.298       .  A
O227       Ni231   1.783       .  S
O227       Ni249   1.790       .  S
O227       Ni243   1.949       .  S
O227        H250   0.967       .  S
C228        O245   1.227   1_655  A
C228        O237   1.317       .  A
C228        C294   1.513   1_545  S
O229       Ni248   1.980       .  S
O229        C235   1.304       .  A
O230       Ni248   2.000   1_655  S
O230        C232   1.275       .  A
Ni231       O234   1.895       .  S
Ni231       O236   1.870       .  S
C232        O242   1.270       .  A
C232        C272   1.571       .  S
O233       Ni249   2.122       .  S
O233        C239   1.328       .  A
O234        C239   1.239       .  A
C235        C965   1.432       .  S
O236        C238   1.259       .  A
O237       Ni248   2.085   1_655  S
C238        O244   1.296       .  A
C238        C400   1.530       .  S
C239        C430   1.538       .  S
H240        O241   0.966       .  S
O241       Ni249   1.971       .  S
O241       Ni243   1.848       .  S
O241       Ni248   1.880       .  S
O242       Ni243   2.005   1_655  S
Ni243       O247   1.901       .  S
Ni243       O245   1.845       .  S
O244       Ni249   2.048       .  S
C246        O247   1.208       .  A
N251        C255   1.350       .  A
N251        C252   1.349       .  A
N251        C993   1.438       .  S
C252        C968   1.439       .  S
C252        C253   1.379       .  A
C253        C254   1.383       .  A
C253        H256   1.082       .  S
C254        C255   1.386       .  A
C254        H257   1.083       .  S
C255       C1041   1.469       .  S
N258        C262   1.351       .  A
N258        C259   1.350       .  A
N258       C1017   1.441       .  S
C259        C966   1.438       .  S
C259        C260   1.377       .  A
C260        C261   1.381       .  A
C260        H263   1.080       .  S
C261        C262   1.386       .  A
C261        H264   1.083       .  S
C262        C956   1.468       .  S
O265       Ni271   1.864       .  S
O265        C286   1.261       .  A
O266       Ni289   1.889       .  S
O266        C275   1.301       .  A
O267       Ni271   1.807       .  S
O267       Ni289   1.785       .  S
O267       Ni283   1.946       .  S
O267        H290   0.967       .  S
C268        O285   1.232       .  A
C268        O277   1.315       .  A
O269       Ni288   1.970       .  S
O269        C275   1.301       .  A
O270       Ni288   1.989       .  S
O270        C272   1.273       .  A
Ni271       O274   1.890       .  S
Ni271       O276   1.923       .  S
C272        O282   1.280       .  A
O273       Ni289   2.137       .  S
O273        C279   1.335       .  A
O274        C279   1.227       .  A
C275        C953   1.432       .  S
O276        C278   1.243       .  A
O277       Ni288   2.072       .  S
C278        O284   1.294       .  A
C278        C730   1.555       .  S
C279        C760   1.539       .  S
H280        O281   0.966       .  S
O281       Ni289   1.970       .  S
O281       Ni283   1.848       .  S
O281       Ni288   1.873       .  S
O282       Ni283   2.015       .  S
Ni283       O287   1.871       .  S
Ni283       O285   1.855       .  S
O284       Ni289   2.086       .  S
C286        O287   1.213       .  A
C286        C312   1.474       .  S
O291       Ni297   1.857   1_545  S
O291        C312   1.258       .  A
O292       Ni315   1.892       .  S
O292        C301   1.298       .  A
O293       Ni297   1.819       .  S
O293       Ni315   1.786       .  S
O293       Ni309   1.952       .  S
O293        H316   0.967       .  S
C294        O311   1.230   1_565  A
C294        O303   1.315       .  A
O295       Ni314   1.975       .  S
O295        C301   1.301       .  A
O296       Ni314   1.990       .  S
O296        C298   1.274       .  A
Ni297       O300   1.887       .  S
Ni297       O302   1.861       .  S
C298        O308   1.277       .  A
O299       Ni315   2.107       .  S
O299        C305   1.331       .  A
O300        C305   1.241       .  A
C301        C951   1.436       .  S
O302        C304   1.260       .  A
O303       Ni314   2.072       .  S
C304        O310   1.300       .  A
C304        C756   1.552   1_565  S
C305        C734   1.535       .  S
H306        O307   0.966       .  S
O307       Ni315   1.960       .  S
O307       Ni309   1.847       .  S
O307       Ni314   1.876       .  S
O308       Ni309   2.007       .  S
Ni309       O313   1.872   1_565  S
Ni309       O311   1.853   1_565  S
O310       Ni315   2.076       .  S
C312        O313   1.212       .  A
N317        C321   1.355       .  A
N317        C318   1.348       .  A
N317        C983   1.433       .  S
C318        C952   1.444       .  S
C318        C319   1.377       .  A
C319        C320   1.383       .  A
C319        H322   1.081       .  S
C320        C321   1.391       .  A
C320        H323   1.082       .  S
C321        C945   1.488       .  S
N324        C328   1.350       .  A
N324        C325   1.349       .  A
N324       C1027   1.439       .  S
C325        C954   1.439       .  S
C325        C326   1.379       .  A
C326        C327   1.382       .  A
C326        H329   1.082       .  S
C327        C328   1.387       .  A
C327        H330   1.083       .  S
C328       C1061   1.467       .  S
O331       Ni337   1.848       .  S
O331        C352   1.259       .  A
O332       Ni355   1.881       .  S
O332        C341   1.297       .  A
O333       Ni337   1.784       .  S
O333       Ni355   1.788       .  S
O333       Ni349   1.946       .  S
O333        H356   0.966       .  S
C334        O351   1.227       .  A
C334        O343   1.319       .  A
O335       Ni354   1.986       .  S
O335        C341   1.306       .  A
O336       Ni354   2.004       .  S
O336        C338   1.276       .  A
Ni337       O340   1.893       .  S
Ni337       O342   1.866       .  S
C338        O348   1.273       .  A
O339       Ni355   2.122       .  S
O339        C345   1.328       .  A
O340        C345   1.237       .  A
C341        C939   1.433       .  S
O342        C344   1.258       .  A
O343       Ni354   2.087       .  S
C344        O350   1.295       .  A
C344        C558   1.529       .  S
C345        C536   1.537       .  S
H346        O347   0.966       .  S
O347       Ni355   1.968       .  S
O347       Ni349   1.848       .  S
O347       Ni354   1.876       .  S
O348       Ni349   2.007       .  S
Ni349       O353   1.895       .  S
Ni349       O351   1.846       .  S
O350       Ni355   2.048       .  S
C352        O353   1.208       .  A
C352        C378   1.494       .  S
O357       Ni363   1.850   1_655  S
O357        C378   1.260       .  A
O358       Ni381   1.883       .  S
O358        C367   1.298       .  A
O359       Ni363   1.783       .  S
O359       Ni381   1.787       .  S
O359       Ni375   1.947       .  S
O359        H382   0.967       .  S
C360        O377   1.227       .  A
C360        O369   1.318   1_654  A
O361       Ni380   1.979       .  S
O361        C367   1.304       .  A
O362       Ni380   2.001       .  S
O362        C364   1.275       .  A
Ni363       O366   1.896       .  S
Ni363       O368   1.870       .  S
C364        O374   1.275       .  A
O365       Ni381   2.122       .  S
O365        C371   1.328       .  A
O366        C371   1.238       .  A
C367        C938   1.432       .  S
O368        C370   1.259       .  A
O369       Ni380   2.086   1_556  S
C370        O376   1.299       .  A
C370        C532   1.539   1_455  S
C371        C562   1.537       .  S
H372        O373   0.966       .  S
O373       Ni381   1.972       .  S
O373       Ni375   1.848       .  S
O373       Ni380   1.881       .  S
O374       Ni375   2.015       .  S
Ni375       O379   1.895   1_455  S
Ni375       O377   1.847   1_455  S
O376       Ni381   2.058       .  S
C378        O379   1.208       .  A
N383        C387   1.362       .  A
N383        C384   1.359       .  A
N383        C942   1.464       .  S
C384        C940   1.442       .  S
C384        C385   1.377       .  A
C385        C386   1.374       .  A
C385        H388   1.083       .  S
C386        C387   1.385       .  A
C386        H389   1.083       .  S
C387        C973   1.474       .  S
N390        C394   1.350       .  A
N390        C391   1.349       .  A
N390        C959   1.439       .  S
C391        C937   1.438       .  S
C391        C392   1.378       .  A
C392        C393   1.382       .  A
C392        H395   1.080       .  S
C393        C394   1.386       .  A
C393        H396   1.083       .  S
C394       C1007   1.470       .  S
O397       Ni403   1.980       .  S
O397        C418   1.304       .  A
O398       Ni421   1.899       .  S
O398        C407   1.207       .  A
O399       Ni403   1.875       .  S
O399       Ni421   1.851       .  S
O399       Ni415   1.966       .  S
O399        H422   0.966       .  S
C400        O417   1.326   1_545  A
C400        O409   1.239       .  A
O401       Ni420   1.848   1_565  S
O401        C407   1.258       .  A
O402       Ni420   1.867   1_565  S
O402        C404   1.259       .  A
Ni403       O406   2.080       .  S
Ni403       O408   2.002       .  S
C404        O414   1.297       .  A
O405       Ni421   1.843       .  S
O405        C411   1.226       .  A
O406        C411   1.318       .  A
C407        C433   1.493   1_565  S
O408        C410   1.277       .  A
O409       Ni420   1.894       .  S
C410        O416   1.272       .  A
C410        C766   1.577   1_565  S
C411        C741   1.509       .  S
H412        O413   0.966   1_545  S
O413       Ni421   1.947       .  S
O413       Ni415   1.792       .  S
O413       Ni420   1.782   1_565  S
O414       Ni415   2.052       .  S
Ni415       O419   1.888       .  S
Ni415       O417   2.114       .  S
O416       Ni421   2.011       .  S
C418        O419   1.299       .  A
C418        C935   1.435       .  S
O423       Ni429   1.990       .  S
O423        C444   1.307       .  A
O424       Ni447   1.894       .  S
O424        C433   1.208       .  A
O425       Ni429   1.882       .  S
O425       Ni447   1.846       .  S
O425       Ni441   1.973       .  S
O425        H448   0.966       .  S
C426        O443   1.329       .  A
C426        O435   1.239   1_545  A
O427       Ni446   1.850       .  S
O427        C433   1.259       .  A
O428       Ni446   1.867       .  S
O428        C430   1.258       .  A
Ni429       O432   2.096       .  S
Ni429       O434   2.003       .  S
C430        O440   1.300       .  A
O431       Ni447   1.845       .  S
O431        C437   1.226       .  A
O432        C437   1.320       .  A
O434        C436   1.276       .  A
O435       Ni446   1.896   1_565  S
C436        O442   1.275       .  A
C436        C740   1.580   1_545  S
C437        C767   1.523       .  S
H438        O439   0.967       .  S
O439       Ni447   1.947       .  S
O439       Ni441   1.790       .  S
O439       Ni446   1.786       .  S
O440       Ni441   2.060       .  S
Ni441       O445   1.885       .  S
Ni441       O443   2.122       .  S
O442       Ni447   2.013       .  S
C444        O445   1.298       .  A
C444        C933   1.437       .  S
N449        C453   1.357       .  A
N449        C450   1.350       .  A
N449        C914   1.437       .  S
C450        C936   1.443       .  S
C450        C451   1.378       .  A
C451        C452   1.382       .  A
C451        H454   1.082       .  S
C452        C453   1.391       .  A
C452        H455   1.082       .  S
C453        C927   1.488       .  S
N456        C460   1.362       .  A
N456        C457   1.359       .  A
N456        C894   1.462       .  S
C457        C934   1.446       .  S
C457        C458   1.378       .  A
C458        C459   1.375       .  A
C458        H461   1.083       .  S
C459        C460   1.385       .  A
C459        H462   1.083       .  S
C460        C907   1.475       .  S
O463       Ni469   1.975       .  S
O463        C484   1.303       .  A
O464       Ni487   1.895       .  S
O464        C473   1.208       .  A
O465       Ni469   1.880       .  S
O465       Ni487   1.846       .  S
O465       Ni481   1.972       .  S
O465        H488   0.966       .  S
C466        O483   1.329   1_554  A
C466        O475   1.237       .  A
O467       Ni486   1.847       .  S
O467        C473   1.259       .  A
O468       Ni486   1.874       .  S
O468        C470   1.260       .  A
Ni469       O472   2.083       .  S
Ni469       O474   2.004       .  S
C470        O480   1.298       .  A
O471       Ni487   1.846       .  S
O471        C477   1.227       .  A
O472        C477   1.317       .  A
C473        C499   1.493   1_556  S
O474        C476   1.276       .  A
O475       Ni486   1.893   1_554  S
C476        O482   1.274       .  A
C476        C700   1.578   1_556  S
C477        C675   1.514       .  S
H478        O479   0.967       .  S
O479       Ni487   1.947       .  S
O479       Ni481   1.789       .  S
O479       Ni486   1.784       .  S
O480       Ni481   2.056       .  S
Ni481       O485   1.886       .  S
Ni481       O483   2.124       .  S
O482       Ni487   2.008       .  S
C484        O485   1.299       .  A
C484        C891   1.430       .  S
O489       Ni495   1.975       .  S
O489        C510   1.302       .  A
O490       Ni513   1.894       .  S
O490        C499   1.208       .  A
O491       Ni495   1.882       .  S
O491       Ni513   1.847       .  S
O491       Ni507   1.972       .  S
O491        H514   0.966       .  S
C492        O509   1.328   1_556  A
C492        O501   1.239       .  A
O493       Ni512   1.851       .  S
O493        C499   1.259       .  A
O494       Ni512   1.866       .  S
O494        C496   1.258       .  A
Ni495       O498   2.084       .  S
Ni495       O500   1.998       .  S
C496        O506   1.300       .  A
O497       Ni513   1.848       .  S
O497        C503   1.226       .  A
O498        C503   1.317       .  A
O500        C502   1.274       .  A
O501       Ni512   1.896   1_556  S
C502        O508   1.276       .  A
C502        C674   1.578   1_554  S
C503        C701   1.516       .  S
H504        O505   0.967       .  S
O505       Ni513   1.947       .  S
O505       Ni507   1.786       .  S
O505       Ni512   1.784       .  S
O506       Ni507   2.060       .  S
Ni507       O511   1.884       .  S
Ni507       O509   2.122       .  S
O508       Ni513   2.017       .  S
C510        O511   1.299       .  A
C510        C889   1.431       .  S
N515        C519   1.353       .  A
N515        C516   1.347       .  A
N515        C904   1.439       .  S
C516        C892   1.437       .  S
C516        C517   1.379       .  A
C517        C518   1.381       .  A
C517        H520   1.081       .  S
C518        C519   1.386       .  A
C518        H521   1.083       .  S
C519        C880   1.470       .  S
N522        C526   1.351       .  A
N522        C523   1.350       .  A
N522        C860   1.441       .  S
C523        C890   1.437       .  S
C523        C524   1.379       .  A
C524        C525   1.381       .  A
C524        H527   1.082       .  S
C525        C526   1.386       .  A
C525        H528   1.083       .  S
C526        C870   1.467       .  S
O529       Ni535   1.979       .  S
O529        C550   1.304       .  A
O530       Ni553   1.897       .  S
O530        C539   1.208       .  A
O531       Ni535   1.880       .  S
O531       Ni553   1.847       .  S
O531       Ni547   1.973       .  S
O531        H554   0.966       .  S
C532        O549   1.329       .  A
C532        O541   1.237   1_655  A
O533       Ni552   1.847       .  S
O533        C539   1.259       .  A
O534       Ni552   1.872       .  S
O534        C536   1.260       .  A
Ni535       O538   2.086       .  S
Ni535       O540   2.002       .  S
C536        O546   1.298       .  A
O537       Ni553   1.845       .  S
O537        C543   1.227       .  A
O538        C543   1.318       .  A
C539        C565   1.495       .  S
O540        C542   1.275       .  A
O541       Ni552   1.894   1_455  S
C542        O548   1.273       .  A
C542        C634   1.575       .  S
C543        C609   1.515       .  S
H544        O545   0.967       .  S
O545       Ni553   1.949       .  S
O545       Ni547   1.790       .  S
O545       Ni552   1.786       .  S
O546       Ni547   2.054       .  S
Ni547       O551   1.887       .  S
Ni547       O549   2.124       .  S
O548       Ni553   2.006       .  S
C550        O551   1.299       .  A
C550        C857   1.435       .  S
O555       Ni561   1.980       .  S
O555        C576   1.304       .  A
O556       Ni579   1.893       .  S
O556        C565   1.208   1_455  A
O557       Ni561   1.881       .  S
O557       Ni579   1.849       .  S
O557       Ni573   1.972       .  S
O557        H580   0.966       .  S
C558        O575   1.325       .  A
C558        O567   1.237       .  A
O559       Ni578   1.849   1_455  S
O559        C565   1.260   1_455  A
O560       Ni578   1.865   1_455  S
O560        C562   1.258       .  A
Ni561       O564   2.086       .  S
Ni561       O566   1.998       .  S
C562        O572   1.300       .  A
O563       Ni579   1.848       .  S
O563        C569   1.227       .  A
O564        C569   1.318       .  A
O566        C568   1.274   1_455  A
O567       Ni578   1.893       .  S
C568        O574   1.277   1_655  A
C568        C608   1.579       .  S
C569        C635   1.518       .  S
H570        O571   0.966   1_655  S
O571       Ni579   1.945       .  S
O571       Ni573   1.785       .  S
O571       Ni578   1.781   1_455  S
O572       Ni573   2.059       .  S
Ni573       O577   1.880       .  S
Ni573       O575   2.114   1_455  S
O574       Ni579   2.018       .  S
C576        O577   1.297       .  A
C576        C855   1.431       .  S
N581        C585   1.350       .  A
N581        C582   1.349       .  A
N581        C873   1.436       .  S
C582        C858   1.441       .  S
C582        C583   1.377       .  A
C583        C584   1.382       .  A
C583        H586   1.080       .  S
C584        C585   1.386       .  A
C584        H587   1.082       .  S
C585        C846   1.470       .  S
N588        C592   1.352       .  A
N588        C589   1.348       .  A
N588        C836   1.440       .  S
C589        C856   1.437       .  S
C589        C590   1.379       .  A
C590        C591   1.381       .  A
C590        H593   1.081       .  S
C591        C592   1.386       .  A
C591        H594   1.083       .  S
C592        C917   1.471       .  S
O595       Ni601   1.972       .  S
O595        C616   1.302       .  A
O596       Ni619   1.896       .  S
O596        C605   1.207       .  A
O597       Ni601   1.883       .  S
O597       Ni619   1.849       .  S
O597       Ni613   1.977       .  S
O597        H620   0.966       .  S
C598        O615   1.329       .  A
C598        O607   1.238       .  A
O599       Ni618   1.848       .  S
O599        C605   1.260       .  A
O600       Ni618   1.871       .  S
O600        C602   1.259       .  A
Ni601       O604   2.082       .  S
Ni601       O606   2.000       .  S
C602        O612   1.301       .  A
O603       Ni619   1.849       .  S
O603        C609   1.227       .  A
O604        C609   1.317       .  A
C605        C631   1.493       .  S
O606        C608   1.275       .  A
O607       Ni618   1.895       .  S
C608        O614   1.275       .  A
H610        O611   0.967       .  S
O611       Ni619   1.951       .  S
O611       Ni613   1.787       .  S
O611       Ni618   1.784       .  S
O612       Ni613   2.062       .  S
Ni613       O617   1.892       .  S
Ni613       O615   2.125       .  S
O614       Ni619   2.016       .  S
C616        O617   1.301       .  A
C616        C833   1.432       .  S
O621       Ni627   1.978       .  S
O621        C642   1.303       .  A
O622       Ni645   1.893       .  S
O622        C631   1.208   1_455  A
O623       Ni627   1.880       .  S
O623       Ni645   1.849       .  S
O623       Ni639   1.974       .  S
O623        H646   0.966       .  S
C624        O641   1.329       .  A
C624        O633   1.238       .  A
O625       Ni644   1.850   1_455  S
O625        C631   1.259   1_455  A
O626       Ni644   1.865   1_455  S
O626        C628   1.258       .  A
Ni627       O630   2.086       .  S
Ni627       O632   1.998       .  S
C628        O638   1.297       .  A
O629       Ni645   1.849       .  S
O629        C635   1.228       .  A
O630        C635   1.318       .  A
O632        C634   1.274   1_455  A
O633       Ni644   1.894       .  S
C634        O640   1.275   1_655  A
H636        O637   0.967   1_655  S
O637       Ni645   1.947       .  S
O637       Ni639   1.788       .  S
O637       Ni644   1.786   1_455  S
O638       Ni639   2.053       .  S
Ni639       O643   1.887       .  S
Ni639       O641   2.125   1_455  S
O640       Ni645   2.010       .  S
C642        O643   1.299       .  A
C642        C832   1.434       .  S
N647        C651   1.356       .  A
N647        C648   1.349       .  A
N647        C883   1.437       .  S
C648        C831   1.442       .  S
C648        C649   1.377       .  A
C649        C650   1.382       .  A
C649        H652   1.081       .  S
C650        C651   1.391       .  A
C650        H653   1.082       .  S
C651        C897   1.486       .  S
N654        C658   1.351       .  A
N654        C655   1.349       .  A
N654        C812   1.437       .  S
C655        C834   1.439       .  S
C655        C656   1.379       .  A
C656        C657   1.381       .  A
C656        H659   1.082       .  S
C657        C658   1.387       .  A
C657        H660   1.083       .  S
C658        C822   1.470       .  S
O661       Ni667   1.979       .  S
O661        C682   1.304       .  A
O662       Ni685   1.895       .  S
O662        C671   1.208       .  A
O663       Ni667   1.880       .  S
O663       Ni685   1.848       .  S
O663       Ni679   1.970       .  S
O663        H686   0.966       .  S
C664        O681   1.328   1_554  A
C664        O673   1.239       .  A
O665       Ni684   1.850       .  S
O665        C671   1.259       .  A
O666       Ni684   1.867       .  S
O666        C668   1.258       .  A
Ni667       O670   2.083       .  S
Ni667       O672   2.000       .  S
C668        O678   1.298       .  A
O669       Ni685   1.847       .  S
O669        C675   1.227       .  A
O670        C675   1.317       .  A
C671        C697   1.493   1_556  S
O672        C674   1.275       .  A
O673       Ni684   1.896   1_554  S
C674        O680   1.275       .  A
H676        O677   0.967       .  S
O677       Ni685   1.947       .  S
O677       Ni679   1.788       .  S
O677       Ni684   1.782       .  S
O678       Ni679   2.056       .  S
Ni679       O683   1.883       .  S
Ni679       O681   2.119       .  S
O680       Ni685   2.013       .  S
C682        O683   1.298       .  A
C682        C809   1.431       .  S
O687       Ni693   1.978       .  S
O687        C708   1.304       .  A
O688       Ni711   1.895       .  S
O688        C697   1.208       .  A
O689       Ni693   1.880       .  S
O689       Ni711   1.846       .  S
O689       Ni705   1.972       .  S
O689        H712   0.966       .  S
C690        O707   1.330   1_556  A
C690        O699   1.238       .  A
O691       Ni710   1.849       .  S
O691        C697   1.259       .  A
O692       Ni710   1.868       .  S
O692        C694   1.258       .  A
Ni693       O696   2.085       .  S
Ni693       O698   2.005       .  S
C694        O704   1.297       .  A
O695       Ni711   1.846       .  S
O695        C701   1.226       .  A
O696        C701   1.318       .  A
O698        C700   1.276       .  A
O699       Ni710   1.895   1_556  S
C700        O706   1.274       .  A
H702        O703   0.967       .  S
O703       Ni711   1.948       .  S
O703       Ni705   1.789       .  S
O703       Ni710   1.785       .  S
O704       Ni705   2.054       .  S
Ni705       O709   1.889       .  S
Ni705       O707   2.127       .  S
O706       Ni711   2.009       .  S
C708        O709   1.300       .  A
C708        C807   1.432       .  S
N713        C717   1.362       .  A
N713        C714   1.359       .  A
N713        C924   1.464       .  S
C714        C808   1.441       .  S
C714        C715   1.378       .  A
C715        C716   1.374       .  A
C715        H718   1.082       .  S
C716        C717   1.385       .  A
C716        H719   1.083       .  S
C717        C839   1.474       .  S
N720        C724   1.350       .  A
N720        C721   1.348       .  A
N720        C798   1.440       .  S
C721        C810   1.437       .  S
C721        C722   1.379       .  A
C722        C723   1.383       .  A
C722        H725   1.080       .  S
C723        C724   1.386       .  A
C723        H726   1.083       .  S
C724        C815   1.469       .  S
O727       Ni733   1.965       .  S
O727        C748   1.295       .  A
O728       Ni751   1.902       .  S
O728        C737   1.205       .  A
O729       Ni733   1.931       .  S
O729       Ni751   1.861       .  S
O729       Ni745   1.969       .  S
O729        H752   0.966       .  S
C730        O747   1.307       .  A
C730        O739   1.268   1_545  A
O731       Ni750   1.849       .  S
O731        C737   1.240       .  A
O732       Ni750   1.893       .  S
O732        C734   1.229       .  A
Ni733       O736   2.075       .  S
Ni733       O738   1.998       .  S
C734        O744   1.313       .  A
O735       Ni751   1.838       .  S
O735        C741   1.216       .  A
O736        C741   1.310       .  A
C737        C763   1.491   1_565  S
O738        C740   1.273       .  A
O739       Ni750   1.923       .  S
C740        O746   1.273       .  A
H742        O743   0.968   1_545  S
O743       Ni751   1.911       .  S
O743       Ni745   1.785       .  S
O743       Ni750   1.902       .  S
O744       Ni745   2.092       .  S
Ni745       O749   1.891       .  S
Ni745       O747   2.061   1_565  S
O746       Ni751   2.009       .  S
C748        O749   1.291       .  A
C748        C796   1.431       .  S
O753       Ni759   1.983       .  S
O753        C774   1.305       .  A
O754       Ni777   1.866       .  S
O754        C763   1.215       .  A
O755       Ni759   1.868       .  S
O755       Ni777   1.851       .  S
O755       Ni771   1.974       .  S
O755        H778   0.967       .  S
C756        O773   1.326       .  A
C756        O765   1.219   1_545  A
O757       Ni776   1.833       .  S
O757        C763   1.257       .  A
O758       Ni776   1.922       .  S
O758        C760   1.282       .  A
Ni759       O762   2.084       .  S
Ni759       O764   1.980       .  S
C760        O770   1.285       .  A
O761       Ni777   1.856       .  S
O761        C767   1.231       .  A
O762        C767   1.319       .  A
O764        C766   1.272       .  A
O765       Ni776   1.907   1_565  S
C766        O772   1.286       .  A
H768        O769   0.967       .  S
O769       Ni777   1.933       .  S
O769       Ni771   1.782       .  S
O769       Ni776   1.824       .  S
O770       Ni771   2.011       .  S
Ni771       O775   1.877       .  S
Ni771       O773   2.143       .  S
O772       Ni777   2.038       .  S
C774        O775   1.296       .  A
C774        C793   1.430       .  S
N779        C783   1.350       .  A
N779        C780   1.350       .  A
N779        C849   1.440       .  S
C780        C794   1.436       .  S
C780        C781   1.377       .  A
C781        C782   1.382       .  A
C781        H784   1.080       .  S
C782        C783   1.385       .  A
C782        H785   1.082       .  S
C783        C863   1.468       .  S
N786        C790   1.349       .  A
N786        C787   1.349       .  A
N786        C825   1.440       .  S
C787        C795   1.437       .  S
C787        C788   1.379       .  A
C788        C789   1.383       .  A
C788        H791   1.081       .  S
C789        C790   1.386       .  A
C789        H792   1.083       .  S
C790        C801   1.467       .  S
C793        C794   1.204       .  T
C795        C796   1.204       .  T
C797        C798   1.404       .  A
C797        C802   1.401       .  A
C797        H803   1.083       .  S
C798        C799   1.401       .  A
C799        C800   1.390       .  A
C799        H804   1.081       .  S
C800        C801   1.401       .  A
C800        H805   1.084       .  S
C801        C802   1.400       .  A
C802        H806   1.083       .  S
C807        C808   1.205       .  T
C809        C810   1.204       .  T
C811        C812   1.399       .  A
C811        C816   1.386       .  A
C811        H817   1.082       .  S
C812        C813   1.404       .  A
C813        C814   1.403       .  A
C813        H818   1.082       .  S
C814        C815   1.400       .  A
C814        H819   1.083       .  S
C815        C816   1.402       .  A
C816        H820   1.083       .  S
C821        C822   1.402       .  A
C821        C826   1.389       .  A
C821        H827   1.084       .  S
C822        C823   1.401       .  A
C823        C824   1.402       .  A
C823        H828   1.083       .  S
C824        C825   1.405       .  A
C824        H829   1.083       .  S
C825        C826   1.400       .  A
C826        H830   1.082       .  S
C831        C832   1.206       .  T
C833        C834   1.205       .  T
C835        C836   1.405       .  A
C835        C840   1.403       .  A
C835        H841   1.083       .  S
C836        C837   1.400       .  A
C837        C838   1.388       .  A
C837        H842   1.081       .  S
C838        C839   1.402       .  A
C838        H843   1.084       .  S
C839        C840   1.402       .  A
C840        H844   1.083       .  S
C845        C846   1.400       .  A
C845        C850   1.402       .  A
C845        H851   1.083       .  S
C846        C847   1.402       .  A
C847        C848   1.390       .  A
C847        H852   1.084       .  S
C848        C849   1.400       .  A
C848        H853   1.081       .  S
C849        C850   1.406       .  A
C850        H854   1.083       .  S
C855        C856   1.204       .  T
C857        C858   1.206       .  T
C859        C860   1.401       .  A
C859        C864   1.388       .  A
C859        H865   1.081       .  S
C860        C861   1.405       .  A
C861        C862   1.402       .  A
C861        H866   1.082       .  S
C862        C863   1.400       .  A
C862        H867   1.083       .  S
C863        C864   1.402       .  A
C864        H868   1.084       .  S
C869        C870   1.400       .  A
C869        C874   1.402       .  A
C869        H875   1.083       .  S
C870        C871   1.402       .  A
C871        C872   1.385       .  A
C871        H876   1.084       .  S
C872        C873   1.397       .  A
C872        H877   1.082       .  S
C873        C874   1.405       .  A
C874        H878   1.083       .  S
C879        C880   1.399       .  A
C879        C884   1.402       .  A
C879        H885   1.083       .  S
C880        C881   1.403       .  A
C881        C882   1.387       .  A
C881        H886   1.083       .  S
C882        C883   1.397       .  A
C882        H887   1.083       .  S
C883        C884   1.406       .  A
C884        H888   1.083       .  S
C889        C890   1.204       .  T
C891        C892   1.204       .  T
C893        C894   1.410       .  A
C893        C898   1.395       .  A
C893        H899   1.077       .  S
C894        C895   1.411       .  A
C895        C896   1.398       .  A
C895        H900   1.076       .  S
C896        C897   1.400       .  A
C896        H901   1.080       .  S
C897        C898   1.402       .  A
C898        H902   1.081       .  S
C903        C904   1.399       .  A
C903        C908   1.386       .  A
C903        H909   1.081       .  S
C904        C905   1.405       .  A
C905        C906   1.404       .  A
C905        H910   1.083       .  S
C906        C907   1.402       .  A
C906        H911   1.083       .  S
C907        C908   1.402       .  A
C908        H912   1.084       .  S
C913        C914   1.407       .  A
C913        C918   1.403       .  A
C913        H919   1.083       .  S
C914        C915   1.397       .  A
C915        C916   1.387       .  A
C915        H920   1.083       .  S
C916        C917   1.403       .  A
C916        H921   1.083       .  S
C917        C918   1.399       .  A
C918        H922   1.083       .  S
C923        C924   1.410       .  A
C923        C928   1.398       .  A
C923        H929   1.076       .  S
C924        C925   1.412       .  A
C925        C926   1.395       .  A
C925        H930   1.075       .  S
C926        C927   1.402       .  A
C926        H931   1.081       .  S
C927        C928   1.401       .  A
C928        H932   1.079       .  S
C933        C934   1.208       .  T
C935        C936   1.207       .  T
C937        C938   1.205       .  T
C939        C940   1.206       .  T
C941        C942   1.412       .  A
C941        C946   1.396       .  A
C941        H947   1.076       .  S
C942        C943   1.411       .  A
C943        C944   1.399       .  A
C943        H948   1.075       .  S
C944        C945   1.401       .  A
C944        H949   1.081       .  S
C945        C946   1.401       .  A
C946        H950   1.080       .  S
C951        C952   1.207       .  T
C953        C954   1.205       .  T
C955        C956   1.402       .  A
C955        C960   1.387       .  A
C955        H961   1.084       .  S
C956        C957   1.400       .  A
C957        C958   1.403       .  A
C957        H962   1.083       .  S
C958        C959   1.406       .  A
C958        H963   1.083       .  S
C959        C960   1.399       .  A
C960        H964   1.081       .  S
C965        C966   1.205       .  T
C967        C968   1.205       .  T
C969        C970   1.406       .  A
C969        C974   1.402       .  A
C969        H975   1.083       .  S
C970        C971   1.400       .  A
C971        C972   1.387       .  A
C971        H976   1.080       .  S
C972        C973   1.402       .  A
C972        H977   1.084       .  S
C973        C974   1.401       .  A
C974        H978   1.083       .  S
C979        C980   1.403       .  A
C979        C984   1.385       .  A
C979        H985   1.082       .  S
C980        C981   1.399       .  A
C981        C982   1.402       .  A
C981        H986   1.083       .  S
C982        C983   1.406       .  A
C982        H987   1.083       .  S
C983        C984   1.395       .  A
C984        H988   1.083       .  S
C989        C990   1.400       .  A
C989        C994   1.402       .  A
C989        H995   1.083       .  S
C990        C991   1.402       .  A
C991        C992   1.387       .  A
C991        H996   1.084       .  S
C992        C993   1.399       .  A
C992        H997   1.082       .  S
C993        C994   1.405       .  A
C994        H998   1.083       .  S
C999       C1000   1.205       .  T
C1001      C1002   1.203       .  T
C1003      C1004   1.399       .  A
C1003      C1008   1.387       .  A
C1003      H1009   1.082       .  S
C1004      C1005   1.405       .  A
C1005      C1006   1.403       .  A
C1005      H1010   1.082       .  S
C1006      C1007   1.400       .  A
C1006      H1011   1.083       .  S
C1007      C1008   1.403       .  A
C1008      H1012   1.084       .  S
C1013      C1014   1.400       .  A
C1013      C1018   1.403       .  A
C1013      H1019   1.083       .  S
C1014      C1015   1.402       .  A
C1015      C1016   1.389       .  A
C1015      H1020   1.084       .  S
C1016      C1017   1.400       .  A
C1016      H1021   1.081       .  S
C1017      C1018   1.406       .  A
C1018      H1022   1.083       .  S
C1023      C1024   1.401       .  A
C1023      C1028   1.384       .  A
C1023      H1029   1.084       .  S
C1024      C1025   1.401       .  A
C1025      C1026   1.404       .  A
C1025      H1030   1.083       .  S
C1026      C1027   1.405       .  A
C1026      H1031   1.082       .  S
C1027      C1028   1.399       .  A
C1028      H1032   1.082       .  S
C1033      C1034   1.206       .  T
C1035      C1036   1.205       .  T
C1037      C1038   1.400       .  A
C1037      C1042   1.388       .  A
C1037      H1043   1.082       .  S
C1038      C1039   1.405       .  A
C1039      C1040   1.403       .  A
C1039      H1044   1.083       .  S
C1040      C1041   1.400       .  A
C1040      H1045   1.083       .  S
C1041      C1042   1.402       .  A
C1042      H1046   1.084       .  S
C1047      C1048   1.401       .  A
C1047      C1052   1.386       .  A
C1047      H1053   1.084       .  S
C1048      C1049   1.400       .  A
C1049      C1050   1.403       .  A
C1049      H1054   1.083       .  S
C1050      C1051   1.405       .  A
C1050      H1055   1.083       .  S
C1051      C1052   1.399       .  A
C1052      H1056   1.082       .  S
C1057      C1058   1.400       .  A
C1057      C1062   1.386       .  A
C1057      H1063   1.082       .  S
C1058      C1059   1.404       .  A
C1059      C1060   1.402       .  A
C1059      H1064   1.083       .  S
C1060      C1061   1.401       .  A
C1060      H1065   1.083       .  S
C1061      C1062   1.401       .  A
C1062      H1066   1.084       .  S
C1067      C1068   1.400       .  A
C1067      C1072   1.403       .  A
C1067      H1073   1.083       .  S
C1068      C1069   1.401       .  A
C1069      C1070   1.387       .  A
C1069      H1074   1.084       .  S
C1070      C1071   1.400       .  A
C1070      H1075   1.081       .  S
C1071      C1072   1.406       .  A
C1072      H1076   1.083       .  S
C1077      C1078   1.205       .  T
C1079      C1080   1.204       .  T
