geometry optimzed in LAMMPS
_audit_creation_date              2020-11-30 
_audit_creation_method            'lammps2cif' 
_symmetry_space_group_name_H-M    'P1' 
_symmetry_Int_Tables_number       1 
_symmetry_cell_setting            triclinic 
loop_ 
_symmetry_equiv_pos_as_xyz 
  x,y,z 
_cell_length_a                    25.86556087 
_cell_length_b                    26.061639120835736 
_cell_length_c                    25.74519389365584 
_cell_angle_alpha                 88.28227947013053 
_cell_angle_beta                  90.18915132644644 
_cell_angle_gamma                 90.0793781373117 
loop_ 
_atom_site_label 
_atom_site_type_symbol 
_atom_site_fract_x 
_atom_site_fract_y 
_atom_site_fract_z 
_atom_site_charge 
O1          O  0.54188675  0.19616583  0.28914276    -0.78900
O2          O  0.45705844  0.02828920  0.16061073    -0.63600
O3          O  0.48504059  0.16206670  0.20449861    -1.10200
C4          C  0.33111707  0.13971914  0.29302205     1.08000
O5          O  0.37864357  0.05263241  0.13490835    -0.76800
O6          O  0.35903586  0.15704158  0.15258099    -0.64400
Ni7        Ni  0.55380065  0.18330453  0.21634887     1.34900
C8          C  0.36851695  0.20069698  0.17181526     0.86700
O9          O  0.52939783  0.09523794  0.13348831    -0.77300
O10         O  0.57045560  0.17024381  0.14436870    -0.87600
C11         C  0.41509237  0.01952183  0.13754011     0.86300
O12         O  0.58286574  0.11838911  0.23503840    -0.65800
O13         O  0.31758188  0.12629573  0.24765899    -0.85100
C14         C  0.56419887  0.07382801  0.24213803     0.87100
C15         C  0.56199009  0.12920225  0.11945168     1.08700
H16         H  0.41840187  0.06760672  0.25154998     0.40500
O17         O  0.41605382  0.09563062  0.22620293    -1.07700
O18         O  0.39075949  0.20474113  0.21579645    -0.64400
Ni19       Ni  0.43340294  0.15779045  0.25787275     1.26300
O20         O  0.51708025  0.06275638  0.23341226    -0.64600
O21         O  0.37772269  0.14961397  0.30623884    -0.76900
C22         C  0.50376631  0.21584371  0.31278379     0.86500
O23         O  0.45810145  0.21601647  0.29421000    -0.64100
Ni24       Ni  0.35134925  0.09247580  0.19153829     1.27400
Ni25       Ni  0.47332295  0.09494809  0.18107078     1.26100
H26         H  0.47287829  0.18504996  0.17703815     0.41100
O27         O  0.19822321  0.24780167  0.56484286    -0.78900
O28         O  0.03002929  0.12470139  0.46249231    -0.63600
O29         O  0.16411405  0.17178707  0.49846423    -1.10200
C30         C  0.13708189  0.28326055  0.35729758     1.08000
O31         O  0.06589093  0.11335552  0.38645293    -0.76800
O32         O  0.16053581  0.14759692  0.36064211    -0.64400
Ni33       Ni  0.18770163  0.17421725  0.56788509     1.34900
C34         C  0.20286579  0.16708407  0.37513911     0.86700
O35         O  0.10015900  0.09160695  0.53467976    -0.77300
O36         O  0.17691400  0.10106512  0.57520728    -0.87600
C37         C  0.02650266  0.11169037  0.41536957     0.86300
O38         O  0.12299046  0.18609354  0.60018046    -0.65800
O39         O  0.11925838  0.24242427  0.33782305    -0.85100
C40         C  0.07899233  0.19867973  0.58229127     0.87100
C41         C  0.13667108  0.07503994  0.56394791     1.08700
H42         H  0.06758916  0.22359344  0.43874057     0.40500
O43         O  0.09628616  0.20075757  0.43293263    -1.07700
O44         O  0.20542164  0.20272324  0.40701496    -0.64400
Ni45       Ni  0.15794563  0.23195925  0.45429867     1.26300
O46         O  0.06492238  0.19109220  0.53530698    -0.64600
O47         O  0.14922389  0.28805660  0.40519176    -0.76900
C48         C  0.21433465  0.27740248  0.52813285     0.86500
O49         O  0.21696255  0.26347191  0.48182576    -0.64100
Ni50       Ni  0.09324119  0.17800489  0.36370924     1.27400
Ni51       Ni  0.09695155  0.14697099  0.48437232     1.26100
H52         H  0.18753203  0.14832790  0.48225805     0.41100
O53         O  0.30106867  0.51468704  0.04990035    -0.78900
O54         O  0.20900881  0.38430566  0.22044989    -0.63600
O55         O  0.24050337  0.43215898  0.08484394    -1.10200
C56         C  0.08778290  0.52626594  0.10356464     1.08000
O57         O  0.13023819  0.36467342  0.19358119    -0.76800
O58         O  0.11046802  0.38716444  0.08885596    -0.64400
Ni59       Ni  0.31005389  0.44111379  0.06412918     1.34900
C60         C  0.12237404  0.40658261  0.04439660     0.86700
O61         O  0.28077655  0.35465891  0.15335717    -0.77300
O62         O  0.32325016  0.36780229  0.07816514    -0.87600
C63         C  0.16436924  0.36674327  0.22933458     0.86300
O64         O  0.34028977  0.45578241  0.12990191    -0.65800
O65         O  0.07269873  0.48160915  0.11853360    -0.85100
C66         C  0.32167922  0.46276179  0.17461784     0.87100
C67         C  0.31236613  0.34015731  0.11889773     1.08700
H68         H  0.17498436  0.47782033  0.17822790     0.40500
O69         O  0.17156090  0.45401252  0.15034238    -1.07700
O70         O  0.14715909  0.44880722  0.03949280    -0.64400
Ni71       Ni  0.19029106  0.48716107  0.08714508     1.26300
O72         O  0.27426319  0.45403692  0.18568474    -0.64600
O73         O  0.13519331  0.53719654  0.09312382    -0.76900
C74         C  0.26382783  0.54158416  0.03058865     0.86500
O75         O  0.21767269  0.52463116  0.02847298    -0.64100
Ni76       Ni  0.10477292  0.42327244  0.15339990     1.27400
Ni77       Ni  0.22734795  0.40614602  0.15280317     1.26100
H78         H  0.22745455  0.40656469  0.06183522     0.41100
O79         O  0.05572155  0.28837588  0.73129833    -0.78900
O80         O  0.96033698  0.45792946  0.85923143    -0.63600
O81         O  0.99424075  0.32590865  0.81154309    -1.10200
C82         C  0.84337581  0.34589658  0.71284767     1.08000
O83         O  0.88052283  0.43133022  0.87653238    -0.76800
O84         O  0.86330523  0.32745425  0.85310269    -0.64400
Ni85       Ni  0.06403235  0.30475380  0.80462983     1.34900
C86         C  0.87468813  0.28498465  0.83243889     0.86700
O87         O  0.03183224  0.39039204  0.89054172    -0.77300
O88         O  0.07806260  0.31911863  0.87775916    -0.87600
C89         C  0.91601944  0.46547846  0.87821109     0.86300
O90         O  0.09308305  0.36960468  0.78457061    -0.65800
O91         O  0.82789055  0.36087983  0.75687862    -0.85100
C92         C  0.07479250  0.41441786  0.77788455     0.87100
C93         C  0.06551387  0.35751401  0.90516149     1.08700
H94         H  0.92966174  0.42088489  0.76248452     0.40500
O95         O  0.92572385  0.39211222  0.78670180    -1.07700
O96         O  0.90141038  0.28287432  0.79143279    -0.64400
Ni97       Ni  0.94542603  0.33084435  0.75430469     1.26300
O98         O  0.02835931  0.42651751  0.78965740    -0.64600
O99         O  0.89121818  0.33810451  0.70227216    -0.76900
C100        C  0.01830040  0.26926241  0.70542389     0.86500
O101        O  0.97149870  0.27269965  0.71954125    -0.64100
Ni102      Ni  0.85810746  0.39338436  0.81623748     1.27400
Ni103      Ni  0.97994202  0.39205855  0.83702971     1.26100
H104        H  0.98047392  0.30196143  0.83727868     0.41100
O105        O  0.72166266  0.04386485  0.29322511    -0.78900
O106        O  0.84891054  0.95379311  0.46451004    -0.63600
O107        O  0.80478576  0.98494335  0.32809242    -1.10200
C108        C  0.71062561  0.83504801  0.35165008     1.08000
O109        O  0.87124596  0.87597572  0.43998200    -0.76800
O110        O  0.85087752  0.85645619  0.33693452    -0.64400
Ni111      Ni  0.79471165  0.05386923  0.30549686     1.34900
C112        C  0.83215427  0.86756516  0.29223961     0.86700
O113        O  0.87679630  0.02605713  0.39616482    -0.77300
O114        O  0.86704230  0.06776180  0.31894639    -0.87600
C115        C  0.87011072  0.91091484  0.47356964     0.86300
O116        O  0.77814110  0.08308577  0.37038736    -0.65800
O117        O  0.75494164  0.81947535  0.36722737    -0.85100
C118        C  0.76843101  0.06364087  0.41496096     0.87100
C119        C  0.89176815  0.05787735  0.36124351     1.08700
H120        H  0.75631913  0.91915101  0.42345613     0.40500
O121        O  0.78128870  0.91622023  0.39585286    -1.07700
O122        O  0.78987251  0.89211279  0.28631725    -0.64400
Ni123      Ni  0.75016785  0.93519036  0.33203328     1.26300
O124        O  0.77725347  0.01663009  0.42728469    -0.64600
O125        O  0.69984247  0.88179811  0.33978929    -0.76900
C126        C  0.69590700  0.00630920  0.27577760     0.86500
O127        O  0.71497178  0.96173813  0.27238704    -0.64100
Ni128      Ni  0.81285706  0.85067755  0.40120842     1.27400
Ni129      Ni  0.82799619  0.97186201  0.39661484     1.26100
H130        H  0.83148532  0.97238567  0.30565479     0.41100
O131        O  0.98652720  0.94380658  0.80168266    -0.78900
O132        O  0.10690118  0.77013822  0.71264232    -0.63600
O133        O  0.06576218  0.90615094  0.73970978    -1.10200
C134        C  0.96086682  0.88599961  0.59709507     1.08000
O135        O  0.12200359  0.79654981  0.63167878    -0.76800
O136        O  0.10202883  0.89496753  0.60807341    -0.64400
Ni137      Ni  0.05983877  0.93052672  0.80772533     1.34900
C138        C  0.08618636  0.93910053  0.61945274     0.86700
O139        O  0.14050552  0.83949157  0.78085352    -0.77300
O140        O  0.13220160  0.91650691  0.81799441    -0.87600
C141        C  0.12153343  0.76146379  0.66672329     0.86300
O142        O  0.04361439  0.86735638  0.84229589    -0.65800
O143        O  0.00273179  0.86792947  0.57918713    -0.85100
C144        C  0.03132822  0.82357653  0.82629398     0.87100
C145        C  0.15681289  0.87510423  0.80943569     1.08700
H146        H  0.01112129  0.81207048  0.68345701     0.40500
O147        O  0.03619615  0.83895618  0.67668453    -1.07700
O148        O  0.04516712  0.94623765  0.64505855    -0.64400
Ni149      Ni  0.00782830  0.90280186  0.69391210     1.26300
O150        O  0.03956546  0.80914665  0.78004734    -0.64600
O151        O  0.95360738  0.89657823  0.64451150    -0.76900
C152        C  0.95986603  0.96134322  0.76354783     0.86500
O153        O  0.97738697  0.96356243  0.71780569    -0.64100
Ni154      Ni  0.06206130  0.83330288  0.60814583     1.27400
Ni155      Ni  0.08762044  0.83811437  0.72925939     1.26100
H156        H  0.09183788  0.92795265  0.72385492     0.41100
O157        O  0.45678740  0.68621810  0.03289496    -0.78900
O158        O  0.29288576  0.79012721  0.89876027    -0.63600
O159        O  0.42419434  0.74977916  0.95029440    -1.10200
C160        C  0.40447867  0.89680165  0.04699690     1.08000
O161        O  0.33075303  0.86379262  0.87761238    -0.76800
O162        O  0.42886323  0.88428800  0.90889867    -0.64400
Ni163      Ni  0.44309069  0.68012949  0.95938961     1.34900
C164        C  0.47095746  0.86878416  0.92934444     0.86700
O165        O  0.35600389  0.71456303  0.87355985    -0.77300
O166        O  0.42874955  0.66875932  0.88668545    -0.87600
C167        C  0.29147002  0.83458352  0.87749837     0.86300
O168        O  0.37691582  0.65286284  0.97595796    -0.65800
O169        O  0.38971054  0.91477633  0.00278511    -0.85100
C170        C  0.33246692  0.67190042  0.98227619     0.87100
C171        C  0.38795836  0.68047995  0.86069435     1.08700
H172        H  0.33203561  0.81704060  0.99543442     0.40500
O173        O  0.36090269  0.81990287  0.97174095    -1.07700
O174        O  0.47220694  0.83975422  0.96980991    -0.64400
Ni175      Ni  0.42145019  0.79741003  0.00600936     1.26300
O176        O  0.32166340  0.71921054  0.97185274    -0.64600
O177        O  0.41510219  0.84947879  0.05689243    -0.76900
C178        C  0.47562696  0.72205809  0.05981658     0.86500
O179        O  0.47807512  0.76826671  0.04336929    -0.64100
Ni180      Ni  0.36166135  0.88694621  0.94061390     1.27400
Ni181      Ni  0.35778987  0.76645044  0.92362712     1.26100
H182        H  0.44834582  0.76309115  0.92471953     0.41100
O183        O  0.19283453  0.45220650  0.57375683    -0.78900
O184        O  0.29108152  0.58997372  0.73237672    -0.63600
O185        O  0.25235056  0.53680573  0.60212249    -1.10200
C186        C  0.40369577  0.44350348  0.62651661     1.08000
O187        O  0.36311025  0.61114130  0.69161084    -0.76800
O188        O  0.38893450  0.57716597  0.59610085    -0.64400
Ni189      Ni  0.18267686  0.52498634  0.58330447     1.34900
C190        C  0.37471695  0.55518957  0.55510632     0.86700
O191        O  0.21312725  0.61192039  0.66648319    -0.77300
O192        O  0.16820030  0.59661619  0.59331527    -0.87600
C193        C  0.33544545  0.61107145  0.73216362     0.86300
O194        O  0.15581687  0.50911409  0.65049860    -0.65800
O195        O  0.42009812  0.48654854  0.64217021    -0.85100
C196        C  0.17635544  0.50190900  0.69479898     0.87100
C197        C  0.17952005  0.62383551  0.63229355     1.08700
H198        H  0.32157985  0.49368244  0.69698939     0.40500
O199        O  0.32364545  0.51699800  0.66715746    -1.07700
O200        O  0.34416212  0.51737442  0.55583603    -0.64400
Ni201      Ni  0.30236344  0.48289005  0.60749895     1.26300
O202        O  0.22307131  0.51482425  0.70539899    -0.64600
O203        O  0.35649058  0.43326818  0.61571888    -0.76900
C204        C  0.23103038  0.42804859  0.55523153     0.86500
O205        O  0.27541225  0.44755601  0.55086343    -0.64100
Ni206      Ni  0.38987351  0.54840670  0.66585723     1.27400
Ni207      Ni  0.26785557  0.56380040  0.66785822     1.26100
H208        H  0.26460927  0.56196251  0.57672614     0.41100
O209        O  0.47587212  0.52970440  0.21316385    -0.78900
O210        O  0.59710807  0.70155196  0.30130041    -0.63600
O211        O  0.55503736  0.56665881  0.27526198    -1.10200
C212        C  0.45892049  0.58437966  0.42526960     1.08000
O213        O  0.61749721  0.67905323  0.38275416    -0.76800
O214        O  0.60045264  0.57387622  0.40195551    -0.64400
Ni215      Ni  0.54910911  0.54430417  0.20649803     1.34900
C216        C  0.58253053  0.52953542  0.39211208     0.86700
O217        O  0.62859782  0.63555439  0.23279279    -0.77300
O218        O  0.62197973  0.55927773  0.19505634    -0.87600
C219        C  0.61814530  0.71107481  0.34412671     0.86300
O220        O  0.53250717  0.60846033  0.17365385    -0.65800
O221        O  0.50356992  0.59909110  0.44021953    -0.85100
C222        C  0.52170228  0.65215867  0.19081370     0.87100
C223        C  0.64566804  0.60152021  0.20318896     1.08700
H224        H  0.50451423  0.65966786  0.33671739     0.40500
O225        O  0.52945627  0.63230768  0.34129498    -1.07700
O226        O  0.53893125  0.52356472  0.36968928    -0.64400
Ni227      Ni  0.49873169  0.56924217  0.32390753     1.26300
O228        O  0.52793458  0.66401193  0.23808116    -0.64600
O229        O  0.44777527  0.57516318  0.37785524    -0.76900
C230        C  0.44815368  0.51112974  0.25014262     0.86500
O231        O  0.46313017  0.51064346  0.29749046    -0.64100
Ni232      Ni  0.56039266  0.63619177  0.40797603     1.27400
Ni233      Ni  0.57770025  0.63430619  0.28620373     1.26100
H234        H  0.58171863  0.54476461  0.28987506     0.41100
O235        O  0.69527127  0.21552992  0.45215512    -0.78900
O236        O  0.53582486  0.34668181  0.55180598    -0.63600
O237        O  0.66585560  0.29438863  0.51604464    -1.10200
C238        C  0.64473465  0.19657088  0.66984488     1.08000
O239        O  0.56913356  0.36424218  0.62835000    -0.76800
O240        O  0.67096654  0.33263976  0.64679581    -0.64400
Ni241      Ni  0.68473995  0.28933689  0.44554282     1.34900
C242        C  0.71238864  0.30945733  0.63444776     0.86700
O243        O  0.60163195  0.37564830  0.47799179    -0.77300
O244        O  0.67493569  0.36328807  0.43402057    -0.87600
C245        C  0.53124096  0.36429659  0.59657047     0.86300
O246        O  0.61771921  0.27734744  0.41727869    -0.65800
O247        O  0.63182411  0.24092902  0.68479143    -0.85100
C248        C  0.57367100  0.26950887  0.43742533     0.87100
C249        C  0.63597379  0.39090816  0.44593702     1.08700
H250        H  0.57108337  0.25083218  0.58460655     0.40500
O251        O  0.60102903  0.27287692  0.58693497    -1.07700
O252        O  0.71202607  0.26931819  0.60772775    -0.64400
Ni253      Ni  0.66009069  0.23702433  0.56561024     1.26300
O254        O  0.56384263  0.27743636  0.48513019    -0.64600
O255        O  0.65217399  0.18581174  0.62182697    -0.76900
C256        C  0.71369915  0.18603160  0.48826049     0.86500
O257        O  0.71458127  0.19805993  0.53587781    -0.64100
Ni258      Ni  0.60281021  0.30220295  0.65361253     1.27400
Ni259      Ni  0.60064191  0.32263079  0.53129111     1.26100
H260        H  0.69085627  0.31815867  0.52945510     0.41100
O261        O  0.78547461  0.94397817  0.82003973    -0.78900
O262        O  0.64929840  0.03703011  0.98628442    -0.62400
O263        O  0.70176357  0.00157575  0.85430912    -1.10200
C264        C  0.79487241  0.15541629  0.87107716     1.08000
O265        O  0.62787380  0.10980649  0.94604610    -0.76800
O266        O  0.65874382  0.13551654  0.84659551    -0.64400
Ni267      Ni  0.71245490  0.93293266  0.83499625     1.34900
C268        C  0.67981787  0.12116415  0.80485199     0.86700
O269        O  0.62402723  0.96109204  0.92118206    -0.77300
O270        O  0.63998732  0.91740161  0.84884608    -0.87600
C271        C  0.62938729  0.08163661  0.98715527     0.86300
O272        O  0.73092965  0.90423809  0.90152835    -0.65800
O273        O  0.75094236  0.16999314  0.88747067    -0.85100
C274        C  0.73728188  0.92247575  0.94621219     0.87100
C275        C  0.61141336  0.92838654  0.88755625     1.08700
H276        H  0.74581708  0.06935235  0.94632022     0.40500
O277        O  0.72204413  0.07160137  0.91730001    -1.07700
O278        O  0.71946107  0.09306288  0.80504842    -0.64400
Ni279      Ni  0.75611051  0.05252983  0.85637256     1.26300
O280        O  0.72362024  0.96844970  0.95738701    -0.64600
O281        O  0.80563786  0.10849569  0.86108139    -0.76900
C282        C  0.80960282  0.98240169  0.79974337     0.86500
O283        O  0.79150866  0.02735872  0.79852967    -0.64100
Ni284      Ni  0.68975492  0.13753090  0.91522666     1.27400
Ni285      Ni  0.67459945  0.01519037  0.92079194     1.26100
H286        H  0.67591504  0.01404914  0.82992617     0.41100
O287        O  0.94808007  0.79994127  0.98092062    -0.78900
O288        O  0.78209038  0.69817330  0.11911404    -0.63600
O289        O  0.91344628  0.73773113  0.06443489    -1.10200
C290        C  0.89068676  0.58959550  0.96674488     1.08000
O291        O  0.82022518  0.62418464  0.13733336    -0.76800
O292        O  0.91685632  0.59802342  0.10180778    -0.64400
Ni293      Ni  0.93362520  0.80728835  0.05466267     1.34900
C294        C  0.95852727  0.61309034  0.08002084     0.86700
O295        O  0.84870707  0.77350592  0.14456279    -0.77300
O296        O  0.92038688  0.82000259  0.12777667    -0.87600
C297        C  0.78030969  0.65251144  0.13810469     0.86300
O298        O  0.86783621  0.83579538  0.03678828    -0.65800
O299        O  0.87250119  0.57228398  0.00980688    -0.85100
C300        C  0.82281354  0.81738361  0.03136176     0.87100
C301        C  0.88183382  0.80735551  0.15664823     1.08700
H302        H  0.81936021  0.67252922  0.01997687     0.40500
O303        O  0.84846231  0.66856832  0.04339732    -1.07700
O304        O  0.95911850  0.64639560  0.04331466    -0.64400
Ni305      Ni  0.90907574  0.68980987  0.00851764     1.26300
O306        O  0.81090859  0.77085766  0.04517685    -0.64600
O307        O  0.90217876  0.63700413  0.95748248    -0.76900
C308        C  0.96725318  0.76328324  0.95526673     0.86500
O309        O  0.96657157  0.71708923  0.97165354    -0.64100
Ni310      Ni  0.84768354  0.60052076  0.07307948     1.27400
Ni311      Ni  0.84730598  0.72201811  0.09271385     1.26100
H312        H  0.93805057  0.72401527  0.08948503     0.41100
C313        C  0.78519863  0.85293187  0.00761954    -0.11300
C314        C  0.76174188  0.88731403  0.98424881    -0.12800
C315        C  0.66109888  0.13928549  0.75437544    -0.11300
C316        C  0.65273752  0.15927487  0.71190166    -0.12800
C317        C  0.61131966  0.48352765  0.40775004    -0.11300
C318        C  0.62810180  0.44187728  0.42253033    -0.12800
C319        C  0.69375423  0.61373619  0.17773991    -0.11300
C320        C  0.73322500  0.63163735  0.15978913    -0.12800
C321        C  0.44277587  0.40660519  0.61859081    -0.11300
C322        C  0.48292748  0.38568457  0.61032457    -0.12800
C323        C  0.39692746  0.57038034  0.50565962    -0.11300
C324        C  0.42100405  0.57691819  0.46574496    -0.12800
C325        C  0.50382587  0.68913608  0.15281414    -0.11300
C326        C  0.49196915  0.70923101  0.11179010    -0.12800
C327        C  0.56181193  0.90318186  0.89478536    -0.11300
C328        C  0.51976891  0.88619509  0.90744291    -0.12800
C329        C  0.37469130  0.65348155  0.81505506    -0.11300
C330        C  0.35595992  0.63405317  0.77757692    -0.12800
C331        C  0.00729882  0.79039938  0.86446114    -0.11300
C332        C  0.98894209  0.77457973  0.90488217    -0.12800
C333        C  0.86135048  0.97614843  0.78187533    -0.11300
C334        C  0.90648388  0.97222006  0.77178055    -0.12800
C335        C  0.13844355  0.71185577  0.65314919    -0.11300
C336        C  0.15388940  0.67105159  0.63980248    -0.12800
C337        C  0.20539787  0.86641698  0.83383036    -0.11300
C338        C  0.24534432  0.85247938  0.85308374    -0.12800
C339        C  0.64606896  0.75811772  0.34730774    -0.11300
C340        C  0.67201998  0.79633759  0.34767121    -0.12800
C341        C  0.85812382  0.84992628  0.24604140    -0.11300
C342        C  0.87345248  0.83254863  0.20552379    -0.12800
C343        C  0.92142247  0.89612957  0.56006891    -0.11300
C344        C  0.89597074  0.90294431  0.52169912    -0.12800
C345        C  0.73284441  0.13649223  0.47347965    -0.11300
C346        C  0.74793578  0.09850856  0.45216990    -0.12800
C347        C  0.14326157  0.47686371  0.73294253    -0.11300
C348        C  0.10995442  0.45213604  0.75546939    -0.12800
C349        C  0.83212962  0.19626955  0.86225081    -0.11300
C350        C  0.85407234  0.23674753  0.85289600    -0.12800
C351        C  0.90677685  0.51285409  0.90434713    -0.11300
C352        C  0.89981277  0.55141868  0.92846915    -0.12800
C353        C  0.80270364  0.33591173  0.67556044    -0.11300
C354        C  0.76207325  0.32669889  0.65379841    -0.12800
C355        C  0.10592984  0.38123895  0.99707907    -0.11300
C356        C  0.09001146  0.36598088  0.95548930    -0.12800
C357        C  0.04732752  0.56454953  0.09805664    -0.11300
C358        C  0.00744555  0.58898041  0.09367808    -0.12800
C359        C  0.35805443  0.47978242  0.21355314    -0.11300
C360        C  0.39716794  0.49250135  0.23619483    -0.12800
C361        C  0.29404817  0.63514283  0.00036538    -0.11300
C362        C  0.27505948  0.59397924  0.01318484    -0.12800
C363        C  0.22297879  0.33005993  0.53772757    -0.11300
C364        C  0.22564423  0.37530856  0.54403800    -0.12800
C365        C  0.04567263  0.22334875  0.61892245    -0.11300
C366        C  0.02971798  0.24402822  0.65734192    -0.12800
C367        C  0.97839580  0.09712141  0.39287994    -0.11300
C368        C  0.93901732  0.08316175  0.37284328    -0.12800
C369        C  0.15361363  0.34625530  0.27998988    -0.11300
C370        C  0.14608006  0.32387654  0.32057872    -0.12800
C371        C  0.13019232  0.02442813  0.58588768    -0.11300
C372        C  0.11436372  0.98346185  0.60167991    -0.12800
C373        C  0.41058622  0.97214887  0.11130296    -0.11300
C374        C  0.40906406  0.93384605  0.08644045    -0.12800
C375        C  0.29008438  0.14519077  0.32938401    -0.11300
C376        C  0.25036934  0.15130997  0.35250572    -0.12800
C377        C  0.33633121  0.28983343  0.12827758    -0.11300
C378        C  0.35208680  0.24804952  0.14444477    -0.12800
C379        C  0.60866161  0.10134161  0.03428891    -0.11300
C380        C  0.59014513  0.11839850  0.07313346    -0.12800
C381        C  0.51399029  0.23648666  0.36326500    -0.11300
C382        C  0.53449992  0.25136147  0.40243001    -0.12800
C383        C  0.64237659  0.01510036  0.26402067    -0.11300
C384        C  0.60079607  0.03485343  0.25669170    -0.12800
loop_ 
_geom_bond_atom_site_label_1 
_geom_bond_atom_site_label_2 
_geom_bond_distance 
_geom_bond_site_symmetry_2 
_ccdc_geom_bond_type 
O1           Ni7   1.939       .  S
O1           C22   1.277       .  A
O2          Ni25   1.877       .  S
O2           C11   1.260       .  A
O3           Ni7   1.888       .  S
O3          Ni25   1.891       .  S
O3          Ni19   1.920       .  S
O3           H26   0.965       .  S
C4           O21   1.280       .  A
C4           O13   1.277       .  A
C4          C375   1.428       .  S
O5          Ni24   1.950       .  S
O5           C11   1.279       .  A
O6          Ni24   1.943       .  S
O6            C8   1.277       .  A
Ni7          O10   1.944       .  S
Ni7          O12   1.900       .  S
C8           O18   1.275       .  A
C8          C378   1.465       .  S
O9          Ni25   1.901       .  S
O9           C15   1.267       .  A
O10          C15   1.282       .  A
C11         C373   1.429   1_545  S
O12          C14   1.266       .  A
O13         Ni24   1.927       .  S
C14          O20   1.273       .  A
C14         C384   1.430       .  S
C15         C380   1.435       .  S
H16          O17   0.967       .  S
O17         Ni25   1.886       .  S
O17         Ni19   1.888       .  S
O17         Ni24   1.897       .  S
O18         Ni19   1.950       .  S
Ni19         O23   1.914       .  S
Ni19         O21   1.914       .  S
O20         Ni25   1.930       .  S
C22          O23   1.273       .  A
C22         C381   1.445       .  S
O27         Ni33   1.936       .  S
O27          C48   1.273       .  A
O28         Ni51   1.913       .  S
O28          C37   1.272       .  A
O29         Ni33   1.889       .  S
O29         Ni51   1.891       .  S
O29         Ni45   1.916       .  S
O29          H52   0.966       .  S
C30          O47   1.281       .  A
C30          O39   1.275       .  A
C30         C370   1.417       .  S
O31         Ni50   1.903       .  S
O31          C37   1.264       .  A
O32         Ni50   1.916       .  S
O32          C34   1.266       .  A
Ni33         O36   1.930       .  S
Ni33         O38   1.901       .  S
C34          O44   1.259       .  A
C34         C376   1.428       .  S
O35         Ni51   1.912       .  S
O35          C41   1.274       .  A
O36          C41   1.279       .  A
C37         C367   1.426   1_455  S
O38          C40   1.266       .  A
O39         Ni50   1.910       .  S
C40          O46   1.283       .  A
C40         C365   1.445       .  S
C41         C371   1.429       .  S
H42          O43   0.967       .  S
O43         Ni51   1.899       .  S
O43         Ni45   1.877       .  S
O43         Ni50   1.896       .  S
O44         Ni45   1.907       .  S
Ni45         O49   1.879       .  S
Ni45         O47   1.917       .  S
O46         Ni51   1.957       .  S
C48          O49   1.259       .  A
C48         C363   1.419       .  S
O53         Ni59   1.955       .  S
O53          C74   1.282       .  A
O54         Ni77   1.878       .  S
O54          C63   1.261       .  A
O55         Ni59   1.890       .  S
O55         Ni77   1.889       .  S
O55         Ni71   1.938       .  S
O55          H78   0.965       .  S
C56          O73   1.286       .  A
C56          O65   1.276       .  A
C56         C357   1.451       .  S
O57         Ni76   1.934       .  S
O57          C63   1.276       .  A
O58         Ni76   1.940       .  S
O58          C60   1.276       .  A
Ni59         O62   1.964       .  S
Ni59         O64   1.912       .  S
C60          O70   1.276       .  A
C60         C355   1.465   1_554  S
O61         Ni77   1.927       .  S
O61          C67   1.274       .  A
O62          C67   1.286       .  A
C63         C369   1.422       .  S
O64          C66   1.268       .  A
O65         Ni76   1.929       .  S
C66          O72   1.279       .  A
C66         C359   1.451       .  S
C67         C377   1.465       .  S
H68          O69   0.967       .  S
O69         Ni77   1.908       .  S
O69         Ni71   1.884       .  S
O69         Ni76   1.904       .  S
O70         Ni71   1.952       .  S
Ni71         O75   1.911       .  S
Ni71         O73   1.943       .  S
O72         Ni77   1.949       .  S
C74          O75   1.274       .  A
C74         C362   1.454       .  S
O79         Ni85   1.959       .  S
O79         C100   1.282       .  A
O80        Ni103   1.896       .  S
O80          C89   1.266       .  A
O81         Ni85   1.899   1_655  S
O81        Ni103   1.900       .  S
O81         Ni97   1.939       .  S
O81         H104   0.965       .  S
C82          O99   1.286       .  A
C82          O91   1.276       .  A
C82         C353   1.450       .  S
O83        Ni102   1.951       .  S
O83          C89   1.279       .  A
O84        Ni102   1.942       .  S
O84          C86   1.278       .  A
Ni85         O88   1.963       .  S
Ni85         O90   1.906       .  S
C86          O96   1.266       .  A
C86         C350   1.450       .  S
O87        Ni103   1.920   1_455  S
O87          C93   1.271       .  A
O88          C93   1.284       .  A
C89         C351   1.444       .  S
O90          C92   1.267       .  A
O91        Ni102   1.932       .  S
C92          O98   1.282       .  A
C92         C348   1.447       .  S
C93         C356   1.463       .  S
H94          O95   0.966       .  S
O95        Ni103   1.906       .  S
O95         Ni97   1.895       .  S
O95        Ni102   1.910       .  S
O96         Ni97   1.925       .  S
Ni97        O101   1.908       .  S
Ni97         O99   1.941       .  S
O98        Ni103   1.950   1_455  S
C100        O101   1.269   1_455  A
C100        C366   1.450       .  S
O105       Ni111   1.933       .  S
O105        C126   1.275       .  A
O106       Ni129   1.875       .  S
O106        C115   1.261       .  A
O107       Ni111   1.890   1_565  S
O107       Ni129   1.883       .  S
O107       Ni123   1.917       .  S
O107        H130   0.966       .  S
C108        O125   1.278       .  A
C108        O117   1.276       .  A
C108        C340   1.424       .  S
O109       Ni128   1.934       .  S
O109        C115   1.275       .  A
O110       Ni128   1.930       .  S
O110        C112   1.272       .  A
Ni111       O114   1.937       .  S
Ni111       O116   1.907       .  S
C112        O122   1.274       .  A
C112        C341   1.455       .  S
O113       Ni129   1.893   1_545  S
O113        C119   1.266       .  A
O114        C119   1.281       .  A
C115        C344   1.416       .  S
O116        C118   1.266       .  A
O117       Ni128   1.924       .  S
C118        O124   1.277       .  A
C118        C346   1.443       .  S
C119        C368   1.423       .  S
H120        O121   0.967       .  S
O121       Ni129   1.887       .  S
O121       Ni123   1.880       .  S
O121       Ni128   1.895       .  S
O122       Ni123   1.947       .  S
Ni123       O127   1.896       .  S
Ni123       O125   1.911       .  S
O124       Ni129   1.943   1_545  S
C126        O127   1.268   1_545  A
C126        C383   1.434       .  S
O131       Ni137   1.933   1_655  S
O131        C152   1.272       .  A
O132       Ni155   1.902       .  S
O132        C141   1.269       .  A
O133       Ni137   1.887       .  S
O133       Ni155   1.889       .  S
O133       Ni149   1.907       .  S
O133        H156   0.965       .  S
C134        O151   1.274       .  A
C134        O143   1.275   1_655  A
C134        C343   1.414       .  S
O135       Ni154   1.911       .  S
O135        C141   1.265       .  A
O136       Ni154   1.910       .  S
O136        C138   1.264       .  A
Ni137       O140   1.923       .  S
Ni137       O142   1.895       .  S
C138        O148   1.268       .  A
C138        C372   1.430       .  S
O139       Ni155   1.905       .  S
O139        C145   1.272       .  A
O140        C145   1.279       .  A
C141        C335   1.419       .  S
O142        C144   1.264       .  A
O143       Ni154   1.919       .  S
C144        O150   1.278       .  A
C144        C331   1.432       .  S
C145        C337   1.418       .  S
H146        O147   0.967       .  S
O147       Ni155   1.894       .  S
O147       Ni149   1.885       .  S
O147       Ni154   1.899       .  S
O148       Ni149   1.928       .  S
Ni149       O153   1.890   1_455  S
Ni149       O151   1.900   1_455  S
O150       Ni155   1.943       .  S
C152        O153   1.263       .  A
C152        C334   1.428       .  S
O157       Ni163   1.935   1_554  S
O157        C178   1.275       .  A
O158       Ni181   1.892       .  S
O158        C167   1.267       .  A
O159       Ni163   1.888       .  S
O159       Ni181   1.894       .  S
O159       Ni175   1.926   1_556  S
O159        H182   0.966       .  S
C160        O177   1.282       .  A
C160        O169   1.275       .  A
C160        C374   1.427       .  S
O161       Ni180   1.919       .  S
O161        C167   1.269       .  A
O162       Ni180   1.925       .  S
O162        C164   1.269       .  A
Ni163       O166   1.938       .  S
Ni163       O168   1.897       .  S
C164        O174   1.269       .  A
C164        C328   1.451       .  S
O165       Ni181   1.896       .  S
O165        C171   1.266       .  A
O166        C171   1.280       .  A
C167        C338   1.420       .  S
O168        C170   1.266       .  A
O169       Ni180   1.917   1_554  S
C170        O176   1.285       .  A
C170        C361   1.448   1_556  S
C171        C329   1.428       .  S
H172        O173   0.967       .  S
O173       Ni181   1.893       .  S
O173       Ni175   1.881   1_556  S
O173       Ni180   1.900       .  S
O174       Ni175   1.937   1_556  S
Ni175       O179   1.897       .  S
Ni175       O177   1.922       .  S
O176       Ni181   1.960       .  S
C178        O179   1.266       .  A
C178        C326   1.432       .  S
O183       Ni189   1.938       .  S
O183        C204   1.274       .  A
O184       Ni207   1.909       .  S
O184        C193   1.272       .  A
O185       Ni189   1.892       .  S
O185       Ni207   1.894       .  S
O185       Ni201   1.913       .  S
O185        H208   0.966       .  S
C186        O203   1.281       .  A
C186        O195   1.275       .  A
C186        C321   1.416       .  S
O187       Ni206   1.914       .  S
O187        C193   1.268       .  A
O188       Ni206   1.925       .  S
O188        C190   1.269       .  A
Ni189       O192   1.929       .  S
Ni189       O194   1.900       .  S
C190        O200   1.262       .  A
C190        C323   1.443       .  S
O191       Ni207   1.892       .  S
O191        C197   1.267       .  A
O192        C197   1.279       .  A
C193        C330   1.430       .  S
O194        C196   1.266       .  A
O195       Ni206   1.910       .  S
C196        O202   1.285       .  A
C196        C347   1.445       .  S
C197        C336   1.417       .  S
H198        O199   0.967       .  S
O199       Ni207   1.891       .  S
O199       Ni201   1.878       .  S
O199       Ni206   1.897       .  S
O200       Ni201   1.919       .  S
Ni201       O205   1.879       .  S
Ni201       O203   1.914       .  S
O202       Ni207   1.958       .  S
C204        O205   1.259       .  A
C204        C364   1.419       .  S
O209       Ni215   1.939       .  S
O209        C230   1.277       .  A
O210       Ni233   1.874       .  S
O210        C219   1.259       .  A
O211       Ni215   1.886       .  S
O211       Ni233   1.886       .  S
O211       Ni227   1.927       .  S
O211        H234   0.964       .  S
C212        O229   1.283       .  A
C212        O221   1.278       .  A
C212        C324   1.442       .  S
O213       Ni232   1.952       .  S
O213        C219   1.279       .  A
O214       Ni232   1.938       .  S
O214        C216   1.277       .  A
Ni215       O218   1.946       .  S
Ni215       O220   1.900       .  S
C216        O226   1.277       .  A
C216        C317   1.458       .  S
O217       Ni233   1.906       .  S
O217        C223   1.267       .  A
O218        C223   1.282       .  A
C219        C339   1.426       .  S
O220        C222   1.266       .  A
O221       Ni232   1.934       .  S
C222        O228   1.274       .  A
C222        C325   1.429       .  S
C223        C319   1.439       .  S
H224        O225   0.967       .  S
O225       Ni233   1.892       .  S
O225       Ni227   1.890       .  S
O225       Ni232   1.897       .  S
O226       Ni227   1.949       .  S
Ni227       O231   1.923       .  S
Ni227       O229   1.928       .  S
O228       Ni233   1.930       .  S
C230        O231   1.278       .  A
C230        C360   1.452       .  S
O235       Ni241   1.945       .  S
O235        C256   1.280       .  A
O236       Ni259   1.874       .  S
O236        C245   1.259       .  A
O237       Ni241   1.890       .  S
O237       Ni259   1.888       .  S
O237       Ni253   1.942       .  S
O237        H260   0.965       .  S
C238        O255   1.291       .  A
C238        O247   1.275       .  A
C238        C316   1.448       .  S
O239       Ni258   1.932       .  S
O239        C245   1.275       .  A
O240       Ni258   1.938       .  S
O240        C242   1.277       .  A
Ni241       O244   1.958       .  S
Ni241       O246   1.907       .  S
C242        O252   1.269       .  A
C242        C354   1.452       .  S
O243       Ni259   1.918       .  S
O243        C249   1.270       .  A
O244        C249   1.283       .  A
C245        C322   1.419       .  S
O246        C248   1.267       .  A
O247       Ni258   1.918       .  S
C248        O254   1.278       .  A
C248        C382   1.442       .  S
C249        C318   1.456       .  S
H250        O251   0.967       .  S
O251       Ni259   1.903       .  S
O251       Ni253   1.884       .  S
O251       Ni258   1.900       .  S
O252       Ni253   1.931       .  S
Ni253       O257   1.913       .  S
Ni253       O255   1.950       .  S
O254       Ni259   1.944       .  S
C256        O257   1.275       .  A
C256        C345   1.445       .  S
O261       Ni267   1.948       .  S
O261        C282   1.278       .  A
O262       Ni285   1.913       .  S
O262        C271   1.273       .  A
O263       Ni267   1.892   1_545  S
O263       Ni285   1.896       .  S
O263       Ni279   1.934       .  S
O263        H286   0.966       .  S
C264        O281   1.288       .  A
C264        O273   1.276       .  A
C264        C349   1.448       .  S
O265       Ni284   1.919       .  S
O265        C271   1.270       .  A
O266       Ni284   1.940       .  S
O266        C268   1.273       .  A
Ni267       O270   1.949       .  S
Ni267       O272   1.908       .  S
C268        O278   1.261       .  A
C268        C315   1.451       .  S
O269       Ni285   1.922   1_565  S
O269        C275   1.274       .  A
O270        C275   1.282       .  A
C271        C379   1.437   1_556  S
O272        C274   1.268       .  A
O273       Ni284   1.923       .  S
C274        O280   1.291       .  A
C274        C314   1.464       .  S
C275        C327   1.451       .  S
H276        O277   0.967       .  S
O277       Ni285   1.914       .  S
O277       Ni279   1.882       .  S
O277       Ni284   1.911       .  S
O278       Ni279   1.916       .  S
Ni279       O283   1.886       .  S
Ni279       O281   1.946       .  S
O280       Ni285   1.977   1_565  S
C282        O283   1.262   1_565  A
C282        C333   1.428       .  S
O287       Ni293   1.951   1_556  S
O287        C308   1.279       .  A
O288       Ni311   1.916       .  S
O288        C297   1.274       .  A
O289       Ni293   1.895       .  S
O289       Ni311   1.901       .  S
O289       Ni305   1.937       .  S
O289        H312   0.966       .  S
C290        O307   1.286       .  A
C290        O299   1.275   1_556  A
C290        C352   1.441       .  S
O291       Ni310   1.921       .  S
O291        C297   1.271       .  A
O292       Ni310   1.934       .  S
O292        C294   1.273       .  A
Ni293       O296   1.952       .  S
Ni293       O298   1.907       .  S
C294        O304   1.264       .  A
C294        C358   1.451   1_655  S
O295       Ni311   1.921       .  S
O295        C301   1.274       .  A
O296        C301   1.283       .  A
C297        C320   1.441       .  S
O298        C300   1.268       .  A
O299       Ni310   1.920       .  S
C300        O306   1.291       .  A
C300        C313   1.464       .  S
C301        C342   1.454       .  S
H302        O303   0.967       .  S
O303       Ni311   1.913       .  S
O303       Ni305   1.884       .  S
O303       Ni310   1.910       .  S
O304       Ni305   1.922       .  S
Ni305       O309   1.893   1_554  S
Ni305       O307   1.939   1_554  S
O306       Ni311   1.977       .  S
C308        O309   1.264       .  A
C308        C332   1.437       .  S
C313        C314   1.225   1_554  T
C315        C316   1.216       .  T
C317        C318   1.219       .  T
C319        C320   1.209       .  T
C321        C322   1.196       .  T
C323        C324   1.211       .  T
C325        C326   1.204       .  T
C327        C328   1.215       .  T
C329        C330   1.203       .  T
C331        C332   1.206   1_455  T
C333        C334   1.202       .  T
C335        C336   1.197       .  T
C337        C338   1.197       .  T
C339        C340   1.201       .  T
C341        C342   1.217       .  T
C343        C344   1.194       .  T
C345        C346   1.212       .  T
C347        C348   1.214       .  T
C349        C350   1.215       .  T
C351        C352   1.211       .  T
C353        C354   1.216       .  T
C355        C356   1.223       .  T
C357        C358   1.216       .  T
C359        C360   1.217       .  T
C361        C362   1.216       .  T
C363        C364   1.197       .  T
C365        C366   1.214       .  T
C367        C368   1.201       .  T
C369        C370   1.198       .  T
C371        C372   1.203   1_545  T
C373        C374   1.202       .  T
C375        C376   1.202       .  T
C377        C378   1.224       .  T
C379        C380   1.207       .  T
C381        C382   1.211       .  T
C383        C384   1.205       .  T
