geometry optimzed in LAMMPS
_audit_creation_date              2020-11-30 
_audit_creation_method            'lammps2cif' 
_symmetry_space_group_name_H-M    'P1' 
_symmetry_Int_Tables_number       1 
_symmetry_cell_setting            triclinic 
loop_ 
_symmetry_equiv_pos_as_xyz 
  x,y,z 
_cell_length_a                    38.7778557 
_cell_length_b                    38.888432872716585 
_cell_length_c                    38.90501530967476 
_cell_angle_alpha                 89.89838773346891 
_cell_angle_beta                  89.91631120006647 
_cell_angle_gamma                 90.09997658127044 
loop_ 
_atom_site_label 
_atom_site_type_symbol 
_atom_site_fract_x 
_atom_site_fract_y 
_atom_site_fract_z 
_atom_site_charge 
N1          N  0.03880536  0.26623477  0.26600026    -0.03500
C2          C  0.04065591  0.23141928  0.26939299    -0.00900
C3          C  0.04506851  0.21650571  0.23738273    -0.23800
C4          C  0.04471618  0.24257167  0.21370145    -0.24000
C5          C  0.04022112  0.27285093  0.23172273    -0.01000
H6          H  0.04649665  0.18933630  0.23157790     0.12800
H7          H  0.04540649  0.23953482  0.18605467     0.12800
O8          O  0.00200376  0.43910590  0.39841933    -0.86500
O9          O  0.00267545  0.44206254  0.59343606    -0.86700
O10         O  0.06205771  0.39993256  0.49218083    -0.88400
O11         O  0.95097019  0.39557951  0.49929803    -0.87100
O12         O  0.90899677  0.43690029  0.50408115    -0.86700
O13         O  0.10209627  0.44340314  0.48797198    -0.88100
O14         O  0.00538955  0.39905776  0.55312141    -0.86600
O15         O  0.00420064  0.39764655  0.44057806    -0.86100
Zr16       Zr  0.00570000  0.42662091  0.49641539     2.84300
O17         O  0.97167968  0.46092486  0.53213437    -1.08100
O18         O  0.03791506  0.46256654  0.46011472    -1.08800
C19         C  0.00317214  0.40751671  0.40884294     1.06600
C20         C  0.00250677  0.41022055  0.58429573     1.06500
C21         C  0.09300316  0.41136977  0.48783215     1.09500
C22         C  0.91936961  0.40523725  0.50330826     1.07300
H23         H  0.05693120  0.44873090  0.54330016     0.32800
O24         O  0.04161363  0.46252398  0.52941939    -1.29100
H25         H  0.95383187  0.44510957  0.44946517     0.32500
O26         O  0.96849172  0.46006930  0.46282435    -1.30700
O27         O  0.01249705  0.55293244  0.59166151    -0.86500
O28         O  0.99411595  0.55071920  0.39707520    -0.88000
O29         O  0.10320434  0.50281685  0.54788895    -0.86600
O30         O  0.90972832  0.49267257  0.55641990    -0.86600
O31         O  0.90395422  0.49206414  0.44445582    -0.86400
O32         O  0.09880364  0.49843581  0.43523768    -0.86200
O33         O  0.05695544  0.59699331  0.48935046    -0.86500
O34         O  0.94583251  0.59319901  0.50201814    -0.86000
O35         O  0.09983379  0.55628998  0.49104147    -0.87100
O36         O  0.90562917  0.54977987  0.50572620    -0.86200
O37         O  0.06325995  0.49790117  0.59128188    -0.86600
O38         O  0.05562895  0.49833572  0.39486015    -0.86300
O39         O  0.94391249  0.49331120  0.40077548    -0.86000
O40         O  0.95250508  0.49928768  0.59661172    -0.86400
O41         O  0.00823972  0.59529226  0.55063811    -0.86700
O42         O  0.99507626  0.59334869  0.43797580    -0.88000
Zr43       Zr  0.00682882  0.49715963  0.56455517     2.83100
Zr44       Zr  0.00091104  0.49566976  0.42625638     2.83500
Zr45       Zr  0.07325453  0.49891701  0.49262719     2.84100
Zr46       Zr  0.93469606  0.49443648  0.49898697     2.83400
Zr47       Zr  0.00202849  0.56655666  0.49460595     2.84200
O48         O  0.96653378  0.53009366  0.46203125    -1.08600
O49         O  0.03886008  0.53281238  0.52807585    -1.08100
C50         C  0.01247570  0.58464293  0.58193585     1.06600
C51         C  0.99279484  0.58244415  0.40666400     1.09200
C52         C  0.09429014  0.50178843  0.57997031     1.06700
C53         C  0.92065389  0.49542099  0.58767240     1.07100
C54         C  0.91278586  0.49172811  0.41239490     1.06700
C55         C  0.08771900  0.49842804  0.40388909     1.06200
C56         C  0.08894980  0.58773803  0.48932263     1.06600
C57         C  0.91493655  0.58174735  0.50688850     1.06200
H58         H  0.04943520  0.54687512  0.44329976     0.32800
O59         O  0.03626945  0.53233231  0.45861140    -1.29700
H60         H  0.95658649  0.54476745  0.54699689     0.32900
O61         O  0.97004954  0.53088931  0.53144377    -1.31100
N62         N  0.01506647  0.72752544  0.72775484    -0.03500
C63         C  0.02262058  0.72044536  0.76122028    -0.00900
C64         C  0.02865727  0.75074086  0.77891603    -0.23800
C65         C  0.02429811  0.77719726  0.75599846    -0.24000
C66         C  0.01605754  0.76241169  0.72484170    -0.01000
H67         H  0.03426286  0.75347512  0.80601933     0.12800
H68         H  0.02710087  0.80434421  0.76142343     0.12800
N69         N  0.99676441  0.26342429  0.72608180    -0.03500
C70         C  0.99508974  0.22879105  0.72173925    -0.00900
C71         C  0.98846066  0.21248636  0.75257264    -0.23800
C72         C  0.98566836  0.23764277  0.77676557    -0.24000
C73         C  0.99056323  0.26880891  0.76011177    -0.01000
H74         H  0.98561741  0.18514038  0.75697740     0.12800
H75         H  0.98127297  0.23341980  0.80392345     0.12800
N76         N  0.01047881  0.72653117  0.26342079    -0.03500
C77         C  0.00960661  0.72353216  0.22851763    -0.00900
C78         C  0.01130646  0.75595807  0.21364039    -0.23800
C79         C  0.01253385  0.77931938  0.23976021    -0.24000
C80         C  0.01193266  0.76079070  0.26998830    -0.01000
H81         H  0.01161355  0.76230133  0.18656242     0.12800
H82         H  0.01310895  0.80702243  0.23704224     0.12800
O83         O  0.00306252  0.05023239  0.39610533    -0.86500
O84         O  0.00648083  0.05145888  0.59007969    -0.86700
O85         O  0.95178369  0.09564124  0.49631612    -0.88400
O86         O  0.06416136  0.08980463  0.48990501    -0.87100
O87         O  0.10339445  0.04560080  0.49141106    -0.86700
O88         O  0.90758944  0.05611901  0.49698493    -0.88100
O89         O  0.00828186  0.09369249  0.54874227    -0.86600
O90         O  0.00520204  0.09269652  0.43698438    -0.86100
Zr91       Zr  0.00629643  0.06473852  0.49315732     2.84300
O92         O  0.03983172  0.02851336  0.52751579    -1.08100
O93         O  0.96863223  0.03146575  0.46022339    -1.08800
C94         C  0.00427221  0.08214954  0.40551765     1.06600
C95         C  0.00807666  0.08317084  0.58026644     1.06500
C96         C  0.91958707  0.08713673  0.49754902     1.09500
C97         C  0.09523143  0.07776441  0.49019818     1.07300
H98         H  0.95686538  0.04681182  0.54380658     0.32800
O99         O  0.97019856  0.03194876  0.52902224    -1.29100
H100        H  0.05313121  0.04086300  0.44261229     0.32500
O101        O  0.03830621  0.02780326  0.45775744    -1.30700
O102        O  0.99756048  0.94055762  0.59278281    -0.86500
O103        O  0.99290251  0.93777768  0.39851341    -0.88000
O104        O  0.90510403  0.99821891  0.55143195    -0.86600
O105        O  0.10187231  0.99160578  0.54694521    -0.86600
O106        O  0.09772999  0.98620894  0.43600223    -0.86400
O107        O  0.90357712  0.00669302  0.44132166    -0.86200
O108        O  0.94109017  0.90009644  0.49885851    -0.86500
O109        O  0.05461076  0.89484351  0.49117909    -0.86000
O110        O  0.90150432  0.94391593  0.49492881    -0.87100
O111        O  0.09813951  0.93507224  0.49057841    -0.86200
O112        O  0.94841081  0.99615050  0.59149326    -0.86600
O113        O  0.94472562  0.00630093  0.39889224    -0.86300
O114        O  0.05431703  0.98616140  0.39596866    -0.86000
O115        O  0.06049848  0.99568802  0.58902288    -0.86400
O116        O  0.99687327  0.89782957  0.55213351    -0.86700
O117        O  0.99640701  0.89626300  0.44057948    -0.88000
Zr118      Zr  0.00383548  0.99542503  0.56274741     2.83100
Zr119      Zr  0.00002161  0.99441454  0.42527617     2.83500
Zr120      Zr  0.93281824  0.99865262  0.49560789     2.84100
Zr121      Zr  0.07157752  0.99149095  0.49246329     2.83400
Zr122      Zr  0.99894769  0.92519821  0.49552533     2.84200
O123        O  0.03382196  0.95849967  0.45956111    -1.08600
O124        O  0.96656478  0.96240868  0.52961983    -1.08100
C125        C  0.99561868  0.90869570  0.58350957     1.06600
C126        C  0.99355983  0.90616891  0.40908812     1.09200
C127        C  0.91639141  0.99636671  0.58251952     1.06700
C128        C  0.09205464  0.99459807  0.57845462     1.07100
C129        C  0.08618944  0.98379600  0.40500840     1.06700
C130        C  0.91360118  0.01013371  0.40992496     1.06200
C131        C  0.90991104  0.91181424  0.49740037     1.06600
C132        C  0.08676616  0.90392544  0.48963482     1.06200
H133        H  0.94863091  0.94776164  0.44686812     0.32800
O134        O  0.96435598  0.96110311  0.46073820    -1.29700
H135        H  0.05072572  0.94329635  0.54333712     0.32900
O136        O  0.03676922  0.95808265  0.52899870    -1.31100
N137        N  0.23306845  0.22704771  0.46540897    -0.03500
C138        C  0.22924484  0.26173475  0.46294988    -0.00900
C139        C  0.26119446  0.27754375  0.46076945    -0.23800
C140        C  0.28536172  0.25208595  0.46232215    -0.24000
C141        C  0.26762759  0.22138715  0.46541192    -0.01000
H142        H  0.26656884  0.30484128  0.45974250     0.12800
H143        H  0.31305076  0.25563846  0.46186307     0.12800
N144        N  0.76945507  0.22502805  0.49643286    -0.03500
C145        C  0.77516633  0.25909748  0.50243540    -0.00900
C146        C  0.74399995  0.27577241  0.50722165    -0.23800
C147        C  0.71855716  0.25154136  0.50424591    -0.24000
C148        C  0.73463404  0.22054121  0.49763473    -0.01000
H149        H  0.73997118  0.30290777  0.51179597     0.12800
H150        H  0.69117189  0.25610124  0.50703777     0.12800
N151        N  0.77190932  0.76342023  0.53019229    -0.03500
C152        C  0.73704369  0.76800779  0.53069606    -0.00900
C153        C  0.72062077  0.73703492  0.53716099    -0.23800
C154        C  0.74562341  0.71255591  0.53995017    -0.24000
C155        C  0.77688403  0.72906789  0.53526753    -0.01000
H156        H  0.69312477  0.73250037  0.53890397     0.12800
H157        H  0.74116497  0.68527098  0.54323812     0.12800
N158        N  0.22945005  0.76633309  0.44073790    -0.03500
C159        C  0.22555961  0.73175312  0.43753481    -0.00900
C160        C  0.25746538  0.71632878  0.43382011    -0.23800
C161        C  0.28167852  0.74202221  0.43569242    -0.24000
C162        C  0.26391257  0.77242666  0.44052903    -0.01000
H163        H  0.26269809  0.68903309  0.43250242     0.12800
H164        H  0.30938072  0.73863437  0.43583238     0.12800
N165        N  0.73328457  0.01071654  0.26598223    -0.03500
C166        C  0.76764468  0.01635318  0.27007725    -0.00900
C167        C  0.78394425  0.01746549  0.23849663    -0.23800
C168        C  0.75900659  0.01213195  0.21423537    -0.24000
C169        C  0.72804037  0.00779156  0.23156408    -0.01000
H170        H  0.81122060  0.02076346  0.23354353     0.12800
H171        H  0.76314638  0.01160882  0.18672783     0.12800
O172        O  0.44414749  0.08908173  0.48889425    -0.86500
O173        O  0.44008827  0.89571872  0.49404502    -0.86700
O174        O  0.40453479  0.99001608  0.43083561    -0.88400
O175        O  0.39877052  0.99522051  0.54378322    -0.87100
O176        O  0.43846097  0.99427278  0.58767334    -0.86700
O177        O  0.44922110  0.99049371  0.39198378    -0.88100
O178        O  0.39947553  0.93823017  0.48771755    -0.86600
O179        O  0.40141139  0.04843919  0.48431852    -0.86100
Zr180      Zr  0.42951842  0.99284119  0.48881594     2.84300
O181        O  0.46182053  0.95900255  0.52689147    -1.08100
O182        O  0.46658548  0.02565237  0.45440296    -1.08800
C183        C  0.41221234  0.07974414  0.48635804     1.06600
C184        C  0.40866877  0.90650292  0.49025323     1.06500
C185        C  0.41685017  0.99024956  0.39988173     1.09500
C186        C  0.40736260  0.99516464  0.57591515     1.07300
H187        H  0.45167189  0.94220898  0.44343266     0.32800
O188        O  0.46587323  0.95650308  0.45791867    -1.29100
H189        H  0.44832904  0.04301888  0.53813179     0.32500
O190        O  0.46291537  0.02786979  0.52491268    -1.30700
O191        O  0.55398116  0.89351509  0.49839077    -0.86500
O192        O  0.55608993  0.08759853  0.48826995    -0.88000
O193        O  0.50039760  0.93291885  0.39664691    -0.86600
O194        O  0.49151874  0.93953967  0.59382050    -0.86600
O195        O  0.49807200  0.05046053  0.58866246    -0.86400
O196        O  0.50634884  0.04395495  0.39311166    -0.86200
O197        O  0.60074935  0.98623950  0.44231329    -0.86500
O198        O  0.59483363  0.99289729  0.55484570    -0.86000
O199        O  0.56060197  0.98353936  0.39893915    -0.87100
O200        O  0.55031264  0.99566885  0.59376852    -0.86200
O201        O  0.49538296  0.89340916  0.44041786    -0.86600
O202        O  0.50095660  0.08662599  0.43337885    -0.86300
O203        O  0.50273848  0.09008339  0.54514799    -0.86000
O204        O  0.48968504  0.89709781  0.55287654    -0.86400
O205        O  0.59676963  0.93438053  0.50139950    -0.86700
O206        O  0.59837083  0.04668738  0.49365922    -0.88000
Zr207      Zr  0.49775583  0.92233771  0.49583701     2.83100
Zr208      Zr  0.50002737  0.06021584  0.49024997     2.83500
Zr209      Zr  0.50332489  0.98905237  0.42375421     2.84100
Zr210      Zr  0.49589557  0.99375202  0.56234304     2.83400
Zr211      Zr  0.56945595  0.99054683  0.49700855     2.84200
O212        O  0.53290645  0.02684949  0.52811125    -1.08600
O213        O  0.53553289  0.95503854  0.46179404    -1.08100
C214        C  0.58600362  0.90294420  0.50064634     1.06600
C215        C  0.58791986  0.07804449  0.48955548     1.09200
C216        C  0.49575452  0.90220270  0.40835363     1.06700
C217        C  0.48798868  0.90794870  0.58425960     1.07100
C218        C  0.50176471  0.08144848  0.57724249     1.06700
C219        C  0.50410666  0.07586617  0.40210437     1.06200
C220        C  0.59180498  0.98359955  0.41038210     1.06600
C221        C  0.58267405  0.99509873  0.58579510     1.06200
H222        H  0.55200760  0.03771019  0.44443805     0.32800
O223        O  0.53686102  0.02426326  0.45890862    -1.29700
H224        H  0.54511647  0.94300508  0.54690561     0.32900
O225        O  0.53207890  0.95714061  0.53119720    -1.31100
N226        N  0.27000672  0.98501402  0.72675028    -0.03500
C227        C  0.27282074  0.98568841  0.76149923    -0.00900
C228        C  0.24059754  0.98782472  0.77662039    -0.23800
C229        C  0.21718829  0.98867600  0.75048830    -0.24000
C230        C  0.23577302  0.98727389  0.72013543    -0.01000
H231        H  0.23470626  0.98952370  0.80376323     0.12800
H232        H  0.18948482  0.99056164  0.75334829     0.12800
N233        N  0.73285910  0.99204964  0.72554078    -0.03500
C234        C  0.76771229  0.99302708  0.72143106    -0.00900
C235        C  0.78403951  0.99670701  0.75277370    -0.23800
C236        C  0.75886631  0.99795118  0.77705816    -0.24000
C237        C  0.72766383  0.99542607  0.75999864    -0.01000
H238        H  0.81145434  0.99874182  0.75756933     0.12800
H239        H  0.76305158  0.00005356  0.80447523     0.12800
N240        N  0.26709614  0.98476865  0.26030548    -0.03500
C241        C  0.27295459  0.99074930  0.22640926    -0.00900
C242        C  0.24224420  0.99556398  0.20903116    -0.23800
C243        C  0.21654925  0.99279811  0.23280258    -0.24000
C244        C  0.23227093  0.98616666  0.26400814    -0.01000
H245        H  0.23880023  0.00025237  0.18181813     0.12800
H246        H  0.18927700  0.99595737  0.22786369     0.12800
O247        O  0.59725694  0.98478345  0.05361033    -0.86500
O248        O  0.40426524  0.99027713  0.05056348    -0.86700
O249        O  0.50728076  0.04091557  0.09281919    -0.88400
O250        O  0.49835081  0.92774783  0.09196262    -0.87100
O251        O  0.50232658  0.88720336  0.04928616    -0.86700
O252        O  0.50510754  0.08371830  0.05199484    -0.88100
O253        O  0.44548716  0.98755426  0.09291366    -0.86600
O254        O  0.55563328  0.98504091  0.09559439    -0.86100
Zr255      Zr  0.50106739  0.98491558  0.06507940     2.84300
O256        O  0.46630481  0.95100147  0.02966244    -1.08100
O257        O  0.53558361  0.02027566  0.03080016    -1.08800
C258        C  0.58729269  0.98471217  0.08543404     1.06600
C259        C  0.41422493  0.99041235  0.08220247     1.06500
C260        C  0.50855706  0.07270623  0.08311210     1.09500
C261        C  0.49999317  0.89633964  0.08104229     1.07300
H262        H  0.45280853  0.03553536  0.04507365     0.32800
O263        O  0.46685461  0.02086715  0.03073774    -1.29100
H264        H  0.55035709  0.93570016  0.04465402     0.32500
O265        O  0.53607951  0.95030598  0.03052373    -1.30700
O266        O  0.40517331  0.98448830  0.93924717    -0.86500
O267        O  0.59928752  0.99032423  0.94100476    -0.88000
O268        O  0.44628039  0.08516247  0.99796192    -0.86600
O269        O  0.44544275  0.88789574  0.99814965    -0.86600
O270        O  0.55702466  0.88893102  0.99220533    -0.86400
O271        O  0.55767542  0.08416041  0.99764518    -0.86200
O272        O  0.50157239  0.04397258  0.89758939    -0.86500
O273        O  0.50178941  0.93057414  0.89675255    -0.86000
O274        O  0.49941868  0.08448939  0.94050560    -0.87100
O275        O  0.50216042  0.88889544  0.93873376    -0.86200
O276        O  0.40488371  0.04319976  0.99307023    -0.86600
O277        O  0.59836089  0.04156304  0.00174553    -0.86300
O278        O  0.59897466  0.93057554  0.99493718    -0.86000
O279        O  0.40427637  0.93025453  0.99767896    -0.86400
O280        O  0.44627396  0.98622569  0.89668282    -0.86700
O281        O  0.55845840  0.98799721  0.89825280    -0.88000
Zr282      Zr  0.43255238  0.98663478  0.99508239     2.83100
Zr283      Zr  0.57047820  0.98605786  0.99647559     2.83500
Zr284      Zr  0.50161969  0.05575880  0.99611434     2.84100
Zr285      Zr  0.50124150  0.91693702  0.99453266     2.83400
Zr286      Zr  0.50203728  0.98705076  0.92543990     2.84200
O287        O  0.53649114  0.95194551  0.96034854    -1.08600
O288        O  0.46711683  0.02168332  0.96037934    -1.08100
C289        C  0.41481940  0.98430925  0.90748970     1.06600
C290        C  0.58977034  0.99045370  0.90917460     1.09200
C291        C  0.41471533  0.07497081  0.99530856     1.06700
C292        C  0.41383917  0.89835656  0.99878535     1.07100
C293        C  0.58869012  0.89905011  0.99303386     1.06700
C294        C  0.58893935  0.07335860  0.00123058     1.06200
C295        C  0.49977384  0.07535015  0.90861559     1.06600
C296        C  0.50211548  0.89885521  0.90707396     1.06200
H297        H  0.55112995  0.03628088  0.94744828     0.32800
O298        O  0.53659562  0.02145401  0.96121330    -1.29700
H299        H  0.45244276  0.93740526  0.94572106     0.32900
O300        O  0.46684906  0.95189773  0.95986445    -1.31100
N301        N  0.54347861  0.21734144  0.22212777    -0.03500
C302        C  0.55220629  0.20865429  0.25481406    -0.00900
C303        C  0.56543879  0.23697295  0.27177331    -0.23800
C304        C  0.56428380  0.26399158  0.24916630    -0.24000
C305        C  0.55047744  0.25142725  0.21895268    -0.01000
H306        H  0.57300222  0.23832741  0.29850675     0.12800
H307        H  0.57167026  0.29028129  0.25457192     0.12800
N308        N  0.46782111  0.75848256  0.22875784    -0.03500
C309        C  0.46683629  0.72393145  0.22328163    -0.00900
C310        C  0.46148412  0.70671740  0.25399254    -0.23800
C311        C  0.45983366  0.73108526  0.27923553    -0.24000
C312        C  0.46441859  0.76256962  0.26331798    -0.01000
H313        H  0.46016133  0.67916943  0.25781296     0.12800
H314        H  0.45781716  0.72609753  0.30654184     0.12800
N315        N  0.47147750  0.75804057  0.76255447    -0.03500
C316        C  0.47262511  0.72316858  0.76668008    -0.00900
C317        C  0.47096748  0.70738028  0.73478872    -0.23800
C318        C  0.46925803  0.73287590  0.71053809    -0.24000
C319        C  0.46994111  0.76370891  0.72802989    -0.01000
H320        H  0.47126627  0.68006685  0.72952411     0.12800
H321        H  0.46898260  0.72928349  0.68295716     0.12800
N322        N  0.50894279  0.22052829  0.76444134    -0.03500
C323        C  0.50847043  0.21792683  0.72945106    -0.00900
C324        C  0.50503369  0.25019660  0.71480138    -0.23800
C325        C  0.50352002  0.27323783  0.74105044    -0.24000
C326        C  0.50552747  0.25469242  0.77138056    -0.01000
H327        H  0.50297179  0.25655897  0.68780126     0.12800
H328        H  0.50126849  0.30082290  0.73810962     0.12800
O329        O  0.99332080  0.39915082  0.05806907    -0.86500
O330        O  0.99868923  0.59268050  0.04682277    -0.86700
O331        O  0.05208048  0.50151479  0.09496082    -0.88400
O332        O  0.93878987  0.49781659  0.09131765    -0.87100
O333        O  0.89929872  0.50109219  0.04744281    -0.86700
O334        O  0.09579624  0.49367333  0.05568133    -0.88100
O335        O  0.99587999  0.55337818  0.09082610    -0.86600
O336        O  0.99697903  0.44258610  0.09784573    -0.86100
Zr337      Zr  0.99661078  0.49620016  0.06551078     2.84300
O338        O  0.96424664  0.53060733  0.02797019    -1.08100
O339        O  0.03190115  0.45847445  0.03426214    -1.08800
C340        C  0.99483648  0.41059763  0.08931012     1.06600
C341        C  0.99677578  0.58439647  0.07896275     1.06500
C342        C  0.08425051  0.49977908  0.08625669     1.09500
C343        C  0.90768628  0.50052565  0.07955682     1.07300
H344        H  0.04817295  0.54234843  0.04395597     0.32800
O345        O  0.03420062  0.52729049  0.03002309    -1.29100
H346        H  0.94620774  0.44789472  0.04560717     0.32500
O347        O  0.96170770  0.46102869  0.03122474    -1.30700
O348        O  0.01012485  0.58684548  0.93608305    -0.86500
O349        O  0.99517613  0.39311637  0.94496961    -0.88000
O350        O  0.09953758  0.54458213  0.99899887    -0.86600
O351        O  0.90366418  0.55183041  0.98675945    -0.86600
O352        O  0.89819575  0.44157702  0.99484294    -0.86400
O353        O  0.09600755  0.43267831  0.00189517    -0.86200
O354        O  0.05921889  0.49285199  0.90049480    -0.86500
O355        O  0.94867574  0.48750102  0.89596905    -0.86000
O356        O  0.10032148  0.49203734  0.94294272    -0.87100
O357        O  0.90478035  0.49250683  0.93533566    -0.86200
O358        O  0.05927785  0.58757251  0.99316298    -0.86600
O359        O  0.05192058  0.39322163  0.00467316    -0.86300
O360        O  0.93901747  0.39877546  0.99678968    -0.86000
O361        O  0.94758647  0.59141929  0.98451315    -0.86400
O362        O  0.00665117  0.54408095  0.89561221    -0.86700
O363        O  0.00254513  0.43274346  0.90165847    -0.88000
Zr364      Zr  0.00209501  0.56154452  0.99264293     2.83100
Zr365      Zr  0.99692431  0.42356437  0.99992701     2.83500
Zr366      Zr  0.06965923  0.48962081  0.99863089     2.84100
Zr367      Zr  0.92995605  0.49546030  0.99307919     2.83400
Zr368      Zr  0.00279050  0.48957053  0.92709431     2.84200
O369        O  0.96526909  0.45799379  0.96212821    -1.08600
O370        O  0.03729936  0.52411217  0.96163349    -1.08100
C371        C  0.01075906  0.57574339  0.90484672     1.06600
C372        C  0.99783167  0.40190203  0.91294755     1.09200
C373        C  0.09047088  0.57638131  0.99625321     1.06700
C374        C  0.91545955  0.58267054  0.98304128     1.07100
C375        C  0.90758380  0.40979167  0.99496681     1.06700
C376        C  0.08424026  0.40167866  0.00474850     1.06200
C377        C  0.09064801  0.49422611  0.91111268     1.06600
C378        C  0.91653495  0.48933346  0.90433662     1.06200
H379        H  0.04931804  0.43898239  0.95099297     0.32800
O380        O  0.03499630  0.45441391  0.96417207    -1.29700
H381        H  0.95453299  0.54100719  0.94166488     0.32900
O382        O  0.96734960  0.52708840  0.95774290    -1.31100
N383        N  0.76915266  0.50100268  0.23068929    -0.03500
C384        C  0.77259626  0.50081635  0.26545270    -0.00900
C385        C  0.74102482  0.50527272  0.28128429    -0.23800
C386        C  0.71722507  0.50852831  0.25566660    -0.24000
C387        C  0.73491934  0.50591409  0.22485913    -0.01000
H388        H  0.73589601  0.50646292  0.30861171     0.12800
H389        H  0.68972527  0.51169590  0.25921333     0.12800
N390        N  0.23293145  0.52459977  0.22389922    -0.03500
C391        C  0.26760895  0.52801764  0.22047275    -0.00900
C392        C  0.28194995  0.53969104  0.25078853    -0.23800
C393        C  0.25536647  0.54309823  0.27379682    -0.24000
C394        C  0.22551680  0.53350012  0.25688894    -0.01000
H395        H  0.30900422  0.54417914  0.25595331     0.12800
H396        H  0.25778170  0.54992913  0.30064350     0.12800
N397        N  0.23518344  0.50118972  0.76600586    -0.03500
C398        C  0.26972135  0.50296446  0.77164245    -0.00900
C399        C  0.28705353  0.51128195  0.74176321    -0.23800
C400        C  0.26267659  0.51460112  0.71674509    -0.24000
C401        C  0.23086413  0.50846924  0.73196350    -0.01000
H402        H  0.31462265  0.51414346  0.73837272     0.12800
H403        H  0.26801273  0.51962787  0.68989705     0.12800
N404        N  0.76858775  0.50842946  0.76456997    -0.03500
C405        C  0.77532148  0.50738785  0.73026299    -0.00900
C406        C  0.74489568  0.50739986  0.71175824    -0.23800
C407        C  0.71855586  0.50840470  0.73512377    -0.24000
C408        C  0.73358614  0.50878081  0.76729206    -0.01000
H409        H  0.74215674  0.50645777  0.68409333     0.12800
H410        H  0.69128669  0.50762751  0.72927261     0.12800
N411        N  0.26886482  0.25735253  0.01553760    -0.03500
C412        C  0.23383873  0.26154661  0.01579723    -0.00900
C413        C  0.21753975  0.22991987  0.01491515    -0.23800
C414        C  0.24270082  0.20553538  0.01394237    -0.24000
C415        C  0.27401499  0.22260492  0.01403435    -0.01000
H416        H  0.19008500  0.22498762  0.01388487     0.12800
H417        H  0.23850274  0.17803669  0.01280748     0.12800
O418        O  0.51012466  0.43633459  0.09707884    -0.86500
O419        O  0.50355941  0.43121978  0.90395513    -0.86700
O420        O  0.45445006  0.38643255  0.00130679    -0.88400
O421        O  0.56594881  0.39589269  0.99785080    -0.87100
O422        O  0.60403714  0.44096257  0.99352293    -0.86700
O423        O  0.40907677  0.42432911  0.00298185    -0.88100
O424        O  0.50829907  0.38941361  0.94546657    -0.86600
O425        O  0.51319405  0.39342049  0.05680257    -0.86100
Zr426      Zr  0.50799693  0.41975937  0.00013185     2.84300
O427        O  0.53874591  0.45640144  0.96312440    -1.08100
O428        O  0.47062927  0.45179849  0.03493037    -1.08800
C429        C  0.51329802  0.40451136  0.08809423     1.06600
C430        C  0.50536586  0.39953931  0.91400012     1.06500
C431        C  0.42191533  0.39365518  0.00236567     1.09500
C432        C  0.59665889  0.40846358  0.99492073     1.07300
H433        H  0.45598504  0.43492539  0.95208423     0.32800
O434        O  0.46943457  0.45072451  0.96574548    -1.29100
H435        H  0.55692345  0.44580126  0.04728304     0.32500
O436        O  0.54075476  0.45820643  0.03299246    -1.30700
O437        O  0.49507507  0.54361252  0.90034051    -0.86500
O438        O  0.50097623  0.54761159  0.09362637    -0.88000
O439        O  0.40247943  0.47955617  0.94515496    -0.86600
O440        O  0.59740527  0.49758588  0.93911568    -0.86600
O441        O  0.60067177  0.50027243  0.05083256    -0.86400
O442        O  0.40520436  0.48242932  0.05640279    -0.86200
O443        O  0.43541601  0.58151824  0.99898945    -0.86500
O444        O  0.54888296  0.59172638  0.99676268    -0.86000
O445        O  0.39846812  0.53536293  0.00229009    -0.87100
O446        O  0.59397295  0.55342793  0.99357392    -0.86200
O447        O  0.44405037  0.48132506  0.90312564    -0.86600
O448        O  0.44799385  0.48648628  0.09691990    -0.86300
O449        O  0.55920147  0.50077124  0.09310161    -0.86000
O450        O  0.55402403  0.49487810  0.89906985    -0.86400
O451        O  0.49114211  0.58675997  0.94033162    -0.86700
O452        O  0.49456023  0.58891665  0.05190420    -0.88000
Zr453      Zr  0.49997281  0.48814304  0.92979659     2.83100
Zr454      Zr  0.50321402  0.49087578  0.06705754     2.83500
Zr455      Zr  0.43229058  0.48279207  0.00022228     2.84100
Zr456      Zr  0.57107386  0.49491291  0.99596250     2.83400
Zr457      Zr  0.49466946  0.55911012  0.99677850     2.84200
O458        O  0.53359590  0.52742554  0.03026136    -1.08600
O459        O  0.46219933  0.52051282  0.96366737    -1.08100
C460        C  0.49256549  0.57564571  0.90905491     1.06600
C461        C  0.49792092  0.57914949  0.08347453     1.09200
C462        C  0.41252387  0.47889355  0.91348912     1.06700
C463        C  0.58589510  0.49807380  0.90799435     1.07100
C464        C  0.59062899  0.50306335  0.08235362     1.06700
C465        C  0.41605509  0.48427750  0.08766319     1.06200
C466        C  0.40501027  0.56793761  0.00190308     1.06600
C467        C  0.58132038  0.58417004  0.99462229     1.06200
H468        H  0.44927219  0.53489662  0.04790775     0.32800
O469        O  0.46434421  0.52172913  0.03319047    -1.29700
H470        H  0.54480516  0.54193080  0.94747455     0.32900
O471        O  0.53219449  0.52660369  0.96249818    -1.31100
N472        N  0.72954431  0.71992019  0.95362344    -0.03500
C473        C  0.72367639  0.75426248  0.95145597    -0.00900
C474        C  0.75373905  0.77185718  0.94435942    -0.23800
C475        C  0.77929147  0.74793816  0.94268898    -0.24000
C476        C  0.76418690  0.71609525  0.94871014    -0.01000
H477        H  0.75700238  0.79944386  0.94236723     0.12800
H478        H  0.80638891  0.75388508  0.93979627     0.12800
N479        N  0.26898952  0.71768848  0.03110671    -0.03500
C480        C  0.27437963  0.75203574  0.03532949    -0.00900
C481        C  0.24461809  0.76782367  0.04688406    -0.23800
C482        C  0.22002265  0.74264725  0.04990745    -0.24000
C483        C  0.23549864  0.71224438  0.04021850    -0.01000
H484        H  0.24100914  0.79495338  0.05187049     0.12800
H485        H  0.19325988  0.74631866  0.05692208     0.12800
N486        N  0.73321989  0.25562489  0.00125937    -0.03500
C487        C  0.76758540  0.26264176  0.00072024    -0.00900
C488        C  0.78654764  0.23262848  0.99894806    -0.23800
C489        C  0.76341547  0.20613478  0.99830662    -0.24000
C490        C  0.73091826  0.22069255  0.99968619    -0.01000
H491        H  0.81434979  0.23029594  0.99803757     0.12800
H492        H  0.76967895  0.17909089  0.99639661     0.12800
C493        C  0.62543352  0.38344712  0.99277290    -0.05300
C494        C  0.65468809  0.39066593  0.97264304    -0.05200
C495        C  0.68114103  0.36644383  0.96931934    -0.23400
C496        C  0.67930202  0.33494778  0.98688588     0.18800
C497        C  0.65051434  0.32782798  0.00805373     0.16100
C498        C  0.62345044  0.35175366  0.01026667    -0.18400
C499        C  0.64955878  0.29714033  0.02703851    -0.20200
C500        C  0.67703076  0.27395335  0.02535982    -0.12800
C501        C  0.70524223  0.28011791  0.00343824     0.03900
C502        C  0.70590999  0.31063380  0.98393109    -0.24900
H503        H  0.65672932  0.41478817  0.95882106     0.09000
H504        H  0.70318370  0.37247388  0.95323918     0.12600
H505        H  0.60116168  0.34603054  0.02615644     0.12500
H506        H  0.62789697  0.29139510  0.04372565     0.12300
H507        H  0.67623397  0.25107132  0.04121278     0.12800
H508        H  0.72721308  0.31554229  0.96657253     0.14800
C509        C  0.37531058  0.59112788  0.00748787    -0.05300
C510        C  0.34994071  0.58166274  0.03155454    -0.05200
C511        C  0.32351442  0.60429304  0.04034848    -0.23400
C512        C  0.32135662  0.63654926  0.02445716     0.18800
C513        C  0.34527775  0.64553510  0.99849084     0.16100
C514        C  0.37262488  0.62303645  0.99061836    -0.18400
C515        C  0.34171893  0.67715714  0.98145718    -0.20200
C516        C  0.31561306  0.70010364  0.99101699    -0.12800
C517        C  0.29333414  0.69244777  0.01856312     0.03900
C518        C  0.29623958  0.66029552  0.03481027    -0.24900
H519        H  0.35138263  0.55717874  0.04466182     0.09000
H520        H  0.30504905  0.59673271  0.05990754     0.12600
H521        H  0.39177878  0.63032125  0.97162104     0.12500
H522        H  0.35927383  0.68426970  0.96094865     0.12300
H523        H  0.31327613  0.72420081  0.97729509     0.12800
H524        H  0.28011938  0.65426944  0.05659477     0.14800
C525        C  0.60613527  0.61291761  0.99193433    -0.05300
C526        C  0.60442860  0.64122884  0.01424039    -0.05200
C527        C  0.62850348  0.66807724  0.01153822    -0.23400
C528        C  0.65412142  0.66736824  0.98593807     0.18800
C529        C  0.65529897  0.63931693  0.96287865     0.16100
C530        C  0.63169963  0.61212286  0.96637312    -0.18400
C531        C  0.68006226  0.63887544  0.93662250    -0.20200
C532        C  0.70389126  0.66565012  0.93350899    -0.12800
C533        C  0.70382028  0.69316554  0.95680580     0.03900
C534        C  0.67862824  0.69402523  0.98294754    -0.24900
H535        H  0.58484734  0.64224491  0.03410149     0.09000
H536        H  0.62702348  0.68940716  0.02935718     0.12600
H537        H  0.63280170  0.59052522  0.94880049     0.12500
H538        H  0.68103632  0.61777499  0.91849517     0.12300
H539        H  0.72277036  0.66483837  0.91300043     0.12800
H540        H  0.67843898  0.71510817  0.00110425     0.14800
C541        C  0.29466784  0.28419423  0.01780375    -0.05300
C542        C  0.29006552  0.31173376  0.04072992    -0.05200
C543        C  0.31382199  0.33876580  0.04206911    -0.23400
C544        C  0.34331990  0.33832627  0.02122827     0.18800
C545        C  0.34905310  0.31012285  0.99905362     0.16100
C546        C  0.32439700  0.28359304  0.99700294    -0.18400
C547        C  0.37929295  0.30906697  0.97922657    -0.20200
C548        C  0.40340363  0.33583235  0.98108975    -0.12800
C549        C  0.39732182  0.36452126  0.00214452     0.03900
C550        C  0.36715887  0.36559922  0.02218344    -0.24900
H551        H  0.26778272  0.31243560  0.05749349     0.09000
H552        H  0.30919313  0.35993796  0.05953866     0.12600
H553        H  0.32814308  0.26271385  0.97900956     0.12500
H554        H  0.38428889  0.28756421  0.96227091     0.12300
H555        H  0.42642788  0.33457628  0.96533703     0.12800
H556        H  0.36246521  0.38749534  0.03875567     0.14800
C557        C  0.71286968  0.50614978  0.79912763    -0.05300
C558        C  0.72099644  0.48220801  0.82493388    -0.05200
C559        C  0.69829061  0.47660994  0.85237107    -0.23400
C560        C  0.66680432  0.49427715  0.85387498     0.18800
C561        C  0.65861045  0.51847840  0.82798208     0.16100
C562        C  0.68191330  0.52463985  0.80124691    -0.18400
C563        C  0.62674693  0.53535087  0.82856723    -0.20200
C564        C  0.60292994  0.52798395  0.85437708    -0.12800
C565        C  0.61091840  0.50429933  0.88039185     0.03900
C566        C  0.64302944  0.48771437  0.88031981    -0.24900
H567        H  0.74421742  0.46689814  0.82322992     0.09000
H568        H  0.70483625  0.45771539  0.87178550     0.12600
H569        H  0.67539251  0.54297430  0.78125464     0.12500
H570        H  0.62008497  0.55390246  0.80885380     0.12300
H571        H  0.57843735  0.54127900  0.85443060     0.12800
H572        H  0.64910775  0.46928583  0.90035858     0.14800
C573        C  0.38627977  0.47520534  0.88650857    -0.05300
C574        C  0.39537246  0.45943794  0.85534847    -0.05200
C575        C  0.37243033  0.45886579  0.82797744    -0.23400
C576        C  0.34027677  0.47474791  0.83106470     0.18800
C577        C  0.33026733  0.48988459  0.86253722     0.16100
C578        C  0.35318159  0.48939160  0.89044988    -0.18400
C579        C  0.29835050  0.50677482  0.86479844    -0.20200
C580        C  0.27753992  0.51020402  0.83559364    -0.12800
C581        C  0.28798877  0.49584318  0.80415669     0.03900
C582        C  0.31881627  0.47722223  0.80249905    -0.24900
H583        H  0.42061067  0.44810161  0.85190365     0.09000
H584        H  0.38036844  0.44717214  0.80397162     0.12600
H585        H  0.34611342  0.50177276  0.91438575     0.12500
H586        H  0.29025398  0.51863013  0.88865788     0.12300
H587        H  0.25412199  0.52521295  0.83727740     0.12800
H588        H  0.32690607  0.46591925  0.77833054     0.14800
C589        C  0.28857703  0.51832822  0.19030735    -0.05300
C590        C  0.28059947  0.53026256  0.15721808    -0.05200
C591        C  0.30312696  0.52397437  0.12980895    -0.23400
C592        C  0.33400424  0.50594885  0.13531834     0.18800
C593        C  0.34181690  0.49341017  0.16849303     0.16100
C594        C  0.31892016  0.49940697  0.19559401    -0.18400
C595        C  0.37298235  0.47614322  0.17433970    -0.20200
C596        C  0.39693939  0.47251849  0.14781598    -0.12800
C597        C  0.38969237  0.48534371  0.11489420     0.03900
C598        C  0.35775740  0.50123124  0.10857613    -0.24900
H599        H  0.25764776  0.54545219  0.15282270     0.09000
H600        H  0.29690889  0.53402360  0.10457117     0.12600
H601        H  0.32515584  0.49015573  0.22115143     0.12500
H602        H  0.37923715  0.46630598  0.19964559     0.12300
H603        H  0.42127428  0.45993457  0.15307740     0.12800
H604        H  0.35200494  0.51115549  0.08322633     0.14800
C605        C  0.71682215  0.50601027  0.19144794    -0.05300
C606        C  0.72418575  0.48166856  0.16585762    -0.05200
C607        C  0.70235552  0.47810784  0.13746516    -0.23400
C608        C  0.67223898  0.49793419  0.13502795     0.18800
C609        C  0.66516254  0.52291681  0.16041709     0.16100
C610        C  0.68796808  0.52742498  0.18774208    -0.18400
C611        C  0.63445976  0.54175908  0.15917528    -0.20200
C612        C  0.61031980  0.53508063  0.13360610    -0.12800
C613        C  0.61695125  0.51024532  0.10837263     0.03900
C614        C  0.64829682  0.49224241  0.10861977    -0.24900
H615        H  0.74569661  0.46420319  0.16859645     0.09000
H616        H  0.70807745  0.45868100  0.11837273     0.12600
H617        H  0.68212457  0.54632165  0.20737152     0.12500
H618        H  0.62866589  0.56091198  0.17853882     0.12300
H619        H  0.58642633  0.54941629  0.13340548     0.12800
H620        H  0.65328026  0.47287447  0.08923095     0.14800
C621        C  0.89051251  0.60981608  0.97437230    -0.05300
C622        C  0.90097215  0.63714072  0.95312129    -0.05200
C623        C  0.87716392  0.66130312  0.94169538    -0.23400
C624        C  0.84266760  0.65910807  0.95212347     0.18800
C625        C  0.83201006  0.63261145  0.97458891     0.16100
C626        C  0.85589190  0.60760423  0.98505947    -0.18400
C627        C  0.79788156  0.63209424  0.98659709    -0.20200
C628        C  0.77503567  0.65845108  0.97756034    -0.12800
C629        C  0.78532622  0.68467487  0.95471192     0.03900
C630        C  0.81898008  0.68374235  0.94116368    -0.24900
H631        H  0.92742990  0.63919857  0.94435974     0.09000
H632        H  0.88579328  0.68184826  0.92488272     0.12600
H633        H  0.84771423  0.58674643  0.00172697     0.12500
H634        H  0.78933668  0.61222816  0.00423401     0.12300
H635        H  0.75005035  0.65883157  0.98981218     0.12800
H636        H  0.82749001  0.70319695  0.92308556     0.14800
C637        C  0.88070548  0.38362331  0.99021925    -0.05300
C638        C  0.88572583  0.35920421  0.96434400    -0.05200
C639        C  0.86194209  0.33307065  0.95913167    -0.23400
C640        C  0.83305305  0.33037442  0.98043940     0.18800
C641        C  0.82699467  0.35515845  0.00632337     0.16100
C642        C  0.85067972  0.38236249  0.01060950    -0.18400
C643        C  0.79833827  0.35112259  0.02822269    -0.20200
C644        C  0.77738052  0.32173392  0.02571296    -0.12800
C645        C  0.78433995  0.29674086  0.00062660     0.03900
C646        C  0.81130807  0.30203542  0.97732011    -0.24900
H647        H  0.90824185  0.36048998  0.94803319     0.09000
H648        H  0.86676814  0.31429105  0.93914968     0.12600
H649        H  0.84669884  0.40137401  0.03056518     0.12500
H650        H  0.79315043  0.36975816  0.04823106     0.12300
H651        H  0.75680256  0.31781653  0.04416312     0.12800
H652        H  0.81660377  0.28282243  0.95782769     0.14800
C653        C  0.11803716  0.60212098  0.99757752    -0.05300
C654        C  0.11955714  0.62850972  0.97304414    -0.05200
C655        C  0.14527424  0.65358623  0.97486091    -0.23400
C656        C  0.16898768  0.65326588  0.00203398     0.18800
C657        C  0.16714546  0.62704761  0.02724178     0.16100
C658        C  0.14222231  0.60109054  0.02431544    -0.18400
C659        C  0.18914615  0.62821130  0.05578121    -0.20200
C660        C  0.21218977  0.65557324  0.05969650    -0.12800
C661        C  0.21512643  0.68086749  0.03410583     0.03900
C662        C  0.19349604  0.67956963  0.00528963    -0.24900
H663        H  0.10092806  0.62959459  0.95242118     0.09000
H664        H  0.14605783  0.67370344  0.95556758     0.12600
H665        H  0.14058004  0.58099780  0.04363737     0.12500
H666        H  0.18745549  0.60883309  0.07577165     0.12300
H667        H  0.22708779  0.65746615  0.08313452     0.12800
H668        H  0.19460688  0.70006643  0.98637232     0.14800
C669        C  0.21364003  0.29409984  0.01411982    -0.05300
C670        C  0.22297618  0.32159262  0.99246670    -0.05200
C671        C  0.20010598  0.34907274  0.98697449    -0.23400
C672        C  0.16711335  0.34889624  0.00211884     0.18800
C673        C  0.15772138  0.32129926  0.02383856     0.16100
C674        C  0.18127188  0.29491403  0.03045244    -0.18400
C675        C  0.12445952  0.31976918  0.03782581    -0.20200
C676        C  0.10053262  0.34543943  0.03053612    -0.12800
C677        C  0.10959333  0.37367316  0.00984954     0.03900
C678        C  0.14309081  0.37533317  0.99565466    -0.24900
H679        H  0.24724472  0.32121520  0.97870251     0.09000
H680        H  0.20772937  0.36980474  0.96993167     0.12600
H681        H  0.17368470  0.27394881  0.04726254     0.12500
H682        H  0.11682656  0.29852147  0.05423326     0.12300
H683        H  0.07507118  0.34365381  0.04190742     0.12800
H684        H  0.15022144  0.39682980  0.97933858     0.14800
C685        C  0.89141046  0.48807377  0.87591717    -0.05300
C686        C  0.89743787  0.46682198  0.84735038    -0.05200
C687        C  0.87418266  0.46608618  0.81994580    -0.23400
C688        C  0.84498202  0.48729007  0.82024348     0.18800
C689        C  0.83910946  0.50929102  0.84857049     0.16100
C690        C  0.86202697  0.50909859  0.87648519    -0.18400
C691        C  0.81063779  0.53141679  0.84829167    -0.20200
C692        C  0.78811880  0.53164278  0.82030665    -0.12800
C693        C  0.79309825  0.50918753  0.79246383     0.03900
C694        C  0.82165644  0.48699686  0.79265805    -0.24900
H695        H  0.92003218  0.45049655  0.84640799     0.09000
H696        H  0.87922924  0.44923036  0.79837257     0.12600
H697        H  0.85757219  0.52599112  0.89818695     0.12500
H698        H  0.80592346  0.54871723  0.86958586     0.12300
H699        H  0.76655319  0.54927435  0.82043390     0.12800
H700        H  0.82549510  0.46930987  0.77152838     0.14800
C701        C  0.11677253  0.50074791  0.88415893    -0.05300
C702        C  0.11299897  0.52988883  0.86307537    -0.05200
C703        C  0.13522501  0.53566352  0.83533885    -0.23400
C704        C  0.16122008  0.51191965  0.82758651     0.18800
C705        C  0.16517086  0.48233492  0.84853003     0.16100
C706        C  0.14322798  0.47717699  0.87706478    -0.18400
C707        C  0.19071949  0.45824582  0.84024033    -0.20200
C708        C  0.21249024  0.46371811  0.81203668    -0.12800
C709        C  0.20944684  0.49349192  0.79174631     0.03900
C710        C  0.18339657  0.51731626  0.79936707    -0.24900
H711        H  0.09254384  0.54819081  0.86804184     0.09000
H712        H  0.13172799  0.55843710  0.81964436     0.12600
H713        H  0.14588243  0.45437834  0.89291010     0.12500
H714        H  0.19405883  0.43531217  0.85572243     0.12300
H715        H  0.23248118  0.44513308  0.80647191     0.12800
H716        H  0.18116241  0.54042810  0.78392665     0.14800
C717        C  0.10979213  0.50821056  0.11292692    -0.05300
C718        C  0.10740166  0.54009361  0.12957835    -0.05200
C719        C  0.13220423  0.55005477  0.15350296    -0.23400
C720        C  0.15917415  0.52774876  0.16208364     0.18800
C721        C  0.16155711  0.49521523  0.14604504     0.16100
C722        C  0.13721656  0.48594335  0.12082253    -0.18400
C723        C  0.18812632  0.47266249  0.15577008    -0.20200
C724        C  0.21142438  0.48200667  0.18170925    -0.12800
C725        C  0.20889683  0.51426184  0.19769643     0.03900
C726        C  0.18354385  0.53737982  0.18679122    -0.24900
H727        H  0.08665532  0.55768900  0.12341444     0.09000
H728        H  0.13001669  0.57501181  0.16565912     0.12600
H729        H  0.13913741  0.46135205  0.10788734     0.12500
H730        H  0.19053588  0.44767653  0.14373705     0.12300
H731        H  0.23142677  0.46418363  0.18934947     0.12800
H732        H  0.18307940  0.56306030  0.19741505     0.14800
C733        C  0.87924774  0.50402274  0.10460983    -0.05300
C734        C  0.85348587  0.52872767  0.09897675    -0.05200
C735        C  0.82691856  0.53334541  0.12281363    -0.23400
C736        C  0.82511571  0.51269198  0.15232074     0.18800
C737        C  0.85020651  0.48684557  0.15763394     0.16100
C738        C  0.87745606  0.48300569  0.13399689    -0.18400
C739        C  0.84754850  0.46534827  0.18649464    -0.20200
C740        C  0.82060732  0.46969337  0.21001923    -0.12800
C741        C  0.79621765  0.49603553  0.20560270     0.03900
C742        C  0.79866693  0.51746987  0.17658288    -0.24900
H743        H  0.85439142  0.54506520  0.07640380     0.09000
H744        H  0.80776714  0.55305751  0.11814560     0.12600
H745        H  0.89694816  0.46348282  0.13816326     0.12500
H746        H  0.86621513  0.44510294  0.19081591     0.12300
H747        H  0.81879469  0.45247407  0.23183583     0.12800
H748        H  0.78003025  0.53789050  0.17302527     0.14800
C749        C  0.50102195  0.37323514  0.88711558    -0.05300
C750        C  0.47946387  0.38111829  0.85927442    -0.05200
C751        C  0.47318347  0.35713890  0.83373000    -0.23400
C752        C  0.48923900  0.32505214  0.83486118     0.18800
C753        C  0.51136761  0.31648798  0.86236545     0.16100
C754        C  0.51650321  0.34047512  0.88905631    -0.18400
C755        C  0.52870944  0.28471340  0.86171744    -0.20200
C756        C  0.52582405  0.26296367  0.83299435    -0.12800
C757        C  0.50428434  0.27203941  0.80537438     0.03900
C758        C  0.48471771  0.30224788  0.80770782    -0.24900
H759        H  0.46689062  0.40588338  0.85748492     0.09000
H760        H  0.45639783  0.36406698  0.81257687     0.12600
H761        H  0.53320644  0.33420582  0.91047846     0.12500
H762        H  0.54590028  0.27759070  0.88245673     0.12300
H763        H  0.54172488  0.24017730  0.83173482     0.12800
H764        H  0.46742639  0.30928912  0.78698420     0.14800
C765        C  0.49267220  0.60139363  0.88075999    -0.05300
C766        C  0.51029375  0.59370887  0.85015190    -0.05200
C767        C  0.51168092  0.61735586  0.82323327    -0.23400
C768        C  0.49470711  0.64899397  0.82589816     0.18800
C769        C  0.47651471  0.65725623  0.85622466     0.16100
C770        C  0.47606891  0.63356795  0.88384234    -0.18400
C771        C  0.45865107  0.68872049  0.85788541    -0.20200
C772        C  0.45810754  0.71117308  0.82945380    -0.12800
C773        C  0.47608089  0.70290150  0.79916611     0.03900
C774        C  0.49492250  0.67198988  0.79814924    -0.24900
H775        H  0.52340048  0.56935772  0.84710181     0.09000
H776        H  0.52562933  0.61062879  0.80004634     0.12600
H777        H  0.46222863  0.63976376  0.90724219     0.12500
H778        H  0.44427513  0.69549205  0.88078190     0.12300
H779        H  0.44265769  0.73427347  0.83078922     0.12800
H780        H  0.50913964  0.66522454  0.77512839     0.14800
C781        C  0.47382084  0.70529724  0.19085900    -0.05300
C782        C  0.45648680  0.71292578  0.16013878    -0.05200
C783        C  0.45985298  0.69119370  0.13156652    -0.23400
C784        C  0.47980152  0.66108215  0.13374897     0.18800
C785        C  0.49795242  0.65395358  0.16439856     0.16100
C786        C  0.49538692  0.67637231  0.19228763    -0.18400
C787        C  0.51706695  0.62361911  0.16743579    -0.20200
C788        C  0.51705766  0.59966730  0.14089837    -0.12800
C789        C  0.49873365  0.60593210  0.11041577     0.03900
C790        C  0.48081832  0.63722027  0.10657137    -0.24900
H791        H  0.43932921  0.73480788  0.15867094     0.09000
H792        H  0.44570690  0.69713239  0.10831772     0.12600
H793        H  0.50898162  0.67039672  0.21590213     0.12500
H794        H  0.53113083  0.61787534  0.19080140     0.12300
H795        H  0.53123706  0.57597396  0.14436498     0.12800
H796        H  0.46649393  0.64224893  0.08319671     0.14800
C797        C  0.54243394  0.27382411  0.18932488    -0.05300
C798        C  0.55284879  0.26535850  0.15586580    -0.05200
C799        C  0.54900497  0.28917517  0.12908851    -0.23400
C800        C  0.53471619  0.32173473  0.13550238     0.18800
C801        C  0.52380913  0.33013386  0.16910510     0.16100
C802        C  0.52750873  0.30609820  0.19561065    -0.18400
C803        C  0.50998546  0.36268132  0.17587648    -0.20200
C804        C  0.50690852  0.38684086  0.14955071    -0.12800
C805        C  0.51730787  0.37881636  0.11588423     0.03900
C806        C  0.53133957  0.34612666  0.10905487    -0.24900
H807        H  0.56513098  0.24093380  0.15068619     0.09000
H808        H  0.55775457  0.28238029  0.10353076     0.12600
H809        H  0.51944604  0.31277890  0.22145725     0.12500
H810        H  0.50163205  0.36949861  0.20156826     0.12300
H811        H  0.49595271  0.41173429  0.15551007     0.12800
H812        H  0.53987834  0.33975838  0.08329756     0.14800
C813        C  0.69919020  0.19956995  0.99873122    -0.05300
C814        C  0.67072373  0.20850352  0.97830875    -0.05200
C815        C  0.64215804  0.18652548  0.97619879    -0.23400
C816        C  0.64227774  0.15479498  0.99349151     0.18800
C817        C  0.67115736  0.14559981  0.01362202     0.16100
C818        C  0.69896858  0.16818595  0.01651717    -0.18400
C819        C  0.67229618  0.11355115  0.02991870    -0.20200
C820        C  0.64532554  0.09035239  0.02579990    -0.12800
C821        C  0.61644070  0.09901576  0.00586547     0.03900
C822        C  0.61465947  0.13160255  0.99024804    -0.24900
H823        H  0.67083999  0.23205849  0.96344904     0.09000
H824        H  0.62045759  0.19387623  0.96030788     0.12600
H825        H  0.72092363  0.16097823  0.03217918     0.12500
H826        H  0.69433350  0.10616800  0.04534694     0.12300
H827        H  0.64700993  0.06552810  0.03837295     0.12800
H828        H  0.59250132  0.13834369  0.97468352     0.14800
C829        C  0.38615182  0.87198922  0.00035653    -0.05300
C830        C  0.35444333  0.87880139  0.98438643    -0.05200
C831        C  0.32747573  0.85513386  0.98604222    -0.23400
C832        C  0.33136150  0.82433661  0.00427877     0.18800
C833        C  0.36315415  0.81664558  0.02024575     0.16100
C834        C  0.39062081  0.84044518  0.01787575    -0.18400
C835        C  0.36636863  0.78576049  0.03893124    -0.20200
C836        C  0.33800513  0.76349952  0.04265178    -0.12800
C837        C  0.30620372  0.77172875  0.02753697     0.03900
C838        C  0.30339733  0.80178170  0.00777823    -0.24900
H839        H  0.35049562  0.90259058  0.97042493     0.09000
H840        H  0.30327362  0.86126443  0.97358264     0.12600
H841        H  0.41493062  0.83495907  0.03045327     0.12500
H842        H  0.39045306  0.77932695  0.05144893     0.12300
H843        H  0.34049409  0.74059978  0.05833526     0.12800
H844        H  0.27886233  0.80820997  0.99607324     0.14800
C845        C  0.61530323  0.87240112  0.99171937    -0.05300
C846        C  0.64601394  0.87673632  0.01019844    -0.05200
C847        C  0.67176711  0.85194427  0.00854582    -0.23400
C848        C  0.66748979  0.82300093  0.98761923     0.18800
C849        C  0.63667842  0.81830895  0.96884669     0.16100
C850        C  0.61041562  0.84283592  0.97154926    -0.18400
C851        C  0.63335355  0.78990833  0.94676975    -0.20200
C852        C  0.66104030  0.76729184  0.94219051    -0.12800
C853        C  0.69180412  0.77254781  0.96029896     0.03900
C854        C  0.69435566  0.79964068  0.98383539    -0.24900
H855        H  0.65000470  0.89927769  0.02604483     0.09000
H856        H  0.69538220  0.85584747  0.02289970     0.12600
H857        H  0.58680863  0.83964797  0.95699132     0.12500
H858        H  0.60998335  0.78607293  0.93202051     0.12300
H859        H  0.65902856  0.74676298  0.92352408     0.12800
H860        H  0.71826191  0.80368574  0.99773406     0.14800
C861        C  0.38759108  0.10163445  0.99393751    -0.05300
C862        C  0.35884473  0.09628643  0.97277211    -0.05200
C863        C  0.33285343  0.12083332  0.97064136    -0.23400
C864        C  0.33462617  0.15088432  0.99033266     0.18800
C865        C  0.36310574  0.15672908  0.01212380     0.16100
C866        C  0.38992571  0.13225021  0.01330962    -0.18400
C867        C  0.36352954  0.18642324  0.03284376    -0.20200
C868        C  0.33538686  0.20925535  0.03278365    -0.12800
C869        C  0.30699708  0.20326307  0.01116314     0.03900
C870        C  0.30753608  0.17448711  0.98936068    -0.24900
H871        H  0.35666168  0.07313863  0.95746593     0.09000
H872        H  0.31098879  0.11599579  0.95400877     0.12600
H873        H  0.41193407  0.13644859  0.02994068     0.12500
H874        H  0.38498007  0.19129052  0.04997964     0.12300
H875        H  0.33526424  0.23072985  0.05045133     0.12800
H876        H  0.28582309  0.16955857  0.97252284     0.14800
C877        C  0.49674323  0.10350019  0.88321923    -0.05300
C878        C  0.46991862  0.12744342  0.88683804    -0.05200
C879        C  0.46695720  0.15524768  0.86425078    -0.23400
C880        C  0.49122166  0.16005379  0.83794849     0.18800
C881        C  0.51870062  0.13638732  0.83430244     0.16100
C882        C  0.52106863  0.10794920  0.85673831    -0.18400
C883        C  0.54332806  0.14172481  0.80835495    -0.20200
C884        C  0.54040708  0.16976747  0.78594129    -0.12800
C885        C  0.51277046  0.19286930  0.78888405     0.03900
C886        C  0.48838920  0.18804515  0.81518054    -0.24900
H887        H  0.45104547  0.12446320  0.90720088     0.09000
H888        H  0.44580663  0.17312461  0.86751512     0.12600
H889        H  0.54214695  0.08984685  0.85418256     0.12500
H890        H  0.56473699  0.12413133  0.80527874     0.12300
H891        H  0.55950736  0.17333427  0.76591940     0.12800
H892        H  0.46701991  0.20582386  0.81748268     0.14800
C893        C  0.50215953  0.87124662  0.88103327    -0.05300
C894        C  0.52614809  0.84432881  0.88356454    -0.05200
C895        C  0.52482581  0.81640900  0.86099103    -0.23400
C896        C  0.49889922  0.81446200  0.83600011     0.18800
C897        C  0.47439785  0.84131893  0.83344406     0.16100
C898        C  0.47651637  0.86982010  0.85562372    -0.18400
C899        C  0.44800756  0.83899758  0.80898005    -0.20200
C900        C  0.44636586  0.81080557  0.78682024    -0.12800
C901        C  0.47114980  0.78451475  0.78845518     0.03900
C902        C  0.49715892  0.78625971  0.81343161    -0.24900
H903        H  0.54592671  0.84491200  0.90318790     0.09000
H904        H  0.54378324  0.79611283  0.86340601     0.12600
H905        H  0.45755583  0.89022208  0.85399170     0.12500
H906        H  0.42881717  0.85910100  0.80678707     0.12300
H907        H  0.42610029  0.80976143  0.76772851     0.12800
H908        H  0.51647418  0.76619017  0.81456883     0.14800
C909        C  0.49897482  0.86824922  0.10656011    -0.05300
C910        C  0.51920281  0.83870189  0.10161269    -0.05200
C911        C  0.51762431  0.81133507  0.12488238    -0.23400
C912        C  0.49500999  0.81261035  0.15296932     0.18800
C913        C  0.47377623  0.84182415  0.15755425     0.16100
C914        C  0.47642404  0.86977117  0.13475672    -0.18400
C915        C  0.44993773  0.84237648  0.18460292    -0.20200
C916        C  0.44740316  0.81445064  0.20705908    -0.12800
C917        C  0.46931891  0.78585814  0.20364072     0.03900
C918        C  0.49318783  0.78516627  0.17646634    -0.24900
H919        H  0.53651893  0.83693752  0.07981044     0.09000
H920        H  0.53378082  0.78902306  0.12068404     0.12600
H921        H  0.46019189  0.89218001  0.13826759     0.12500
H922        H  0.43311437  0.86429259  0.18827528     0.12300
H923        H  0.42853526  0.81530228  0.22757425     0.12800
H924        H  0.51051729  0.76352121  0.17384295     0.14800
C925        C  0.53110223  0.19447872  0.19586452    -0.05300
C926        C  0.49734388  0.19690978  0.18315570    -0.05200
C927        C  0.48564831  0.17385779  0.15796268    -0.23400
C928        C  0.50762153  0.14804452  0.14530986     0.18800
C929        C  0.54181709  0.14604682  0.15786539     0.16100
C930        C  0.55336246  0.16957703  0.18250802    -0.18400
C931        C  0.56394499  0.12030333  0.14590589    -0.20200
C932        C  0.55229099  0.09631883  0.12206228    -0.12800
C933        C  0.51859688  0.09799734  0.10923165     0.03900
C934        C  0.49626033  0.12412666  0.12052401    -0.24900
H935        H  0.48009059  0.21641955  0.19299991     0.09000
H936        H  0.45941672  0.17598132  0.14866097     0.12600
H937        H  0.57973468  0.16853042  0.19162691     0.12500
H938        H  0.59020055  0.11852037  0.15523081     0.12300
H939        H  0.56983303  0.07655444  0.11316211     0.12800
H940        H  0.47025159  0.12549495  0.11043505     0.14800
C941        C  0.30641468  0.99081712  0.20854861    -0.05300
C942        C  0.33148398  0.96560553  0.21496373    -0.05200
C943        C  0.35969159  0.96214881  0.19282931    -0.23400
C944        C  0.36217616  0.98291165  0.16339338     0.18800
C945        C  0.33741338  0.00891203  0.15756474     0.16100
C946        C  0.31057887  0.01342247  0.18080539    -0.18400
C947        C  0.33856191  0.02873189  0.12754601    -0.20200
C948        C  0.36338356  0.02201967  0.10272743    -0.12800
C949        C  0.38791599  0.99620205  0.10818649     0.03900
C950        C  0.38792663  0.97723497  0.13886505    -0.24900
H951        H  0.32838476  0.94744229  0.23584598     0.09000
H952        H  0.37840152  0.94204455  0.19762795     0.12600
H953        H  0.29144600  0.03315582  0.17595896     0.12500
H954        H  0.31967277  0.04869147  0.12281929     0.12300
H955        H  0.36372652  0.03726551  0.07937840     0.12800
H956        H  0.40708000  0.95734859  0.14293859     0.14800
C957        C  0.69470030  0.99519748  0.77907106    -0.05300
C958        C  0.66803227  0.97190051  0.77165532    -0.05200
C959        C  0.64056597  0.96768489  0.79475378    -0.23400
C960        C  0.64043093  0.98547830  0.82617518     0.18800
C961        C  0.66717894  0.00903397  0.83343618     0.16100
C962        C  0.69300823  0.01481169  0.80926607    -0.18400
C963        C  0.66875129  0.02533638  0.86543210    -0.20200
C964        C  0.64402097  0.01823025  0.89034586    -0.12800
C965        C  0.61676998  0.99558885  0.88323943     0.03900
C966        C  0.61477938  0.97949551  0.85095042    -0.24900
H967        H  0.66919456  0.95575674  0.74906897     0.09000
H968        H  0.62043558  0.94926598  0.78888321     0.12600
H969        H  0.71328037  0.03313856  0.81509646     0.12500
H970        H  0.68944272  0.04311667  0.87140090     0.12300
H971        H  0.64570826  0.03111227  0.91496320     0.12800
H972        H  0.59384763  0.96180938  0.84552545     0.14800
C973        C  0.30489637  0.98602383  0.78174648    -0.05300
C974        C  0.33368554  0.00581061  0.77208508    -0.05200
C975        C  0.36216095  0.00840347  0.79403792    -0.23400
C976        C  0.36171923  0.99193164  0.82619390     0.18800
C977        C  0.33258157  0.97223343  0.83585201     0.16100
C978        C  0.30485791  0.96899305  0.81344455    -0.18400
C979        C  0.33107677  0.95660588  0.86815735    -0.20200
C980        C  0.35808283  0.96072098  0.89111169    -0.12800
C981        C  0.38726465  0.98015016  0.88202783     0.03900
C982        C  0.38933026  0.99533922  0.84926803    -0.24900
H983        H  0.33377025  0.02015541  0.74822879     0.09000
H984        H  0.38403733  0.02398228  0.78631033     0.12600
H985        H  0.28267618  0.95375667  0.82110781     0.12500
H986        H  0.30880550  0.94155947  0.87586078     0.12300
H987        H  0.35622008  0.94845354  0.91607462     0.12800
H988        H  0.41175846  0.01049492  0.84223920     0.14800
C989        C  0.50577344  0.10242417  0.37475548    -0.05300
C990        C  0.49214575  0.13532532  0.38091543    -0.05200
C991        C  0.49593956  0.16154035  0.35672654    -0.23400
C992        C  0.51391572  0.15555095  0.32609906     0.18800
C993        C  0.52704071  0.12245859  0.31898637     0.16100
C994        C  0.52243669  0.09588576  0.34319515    -0.18400
C995        C  0.54585069  0.11708581  0.28853566    -0.20200
C996        C  0.55296550  0.14464930  0.26629022    -0.12800
C997        C  0.54060223  0.17770573  0.27380153     0.03900
C998        C  0.52031080  0.18263281  0.30327709    -0.24900
H999        H  0.47885420  0.14096501  0.40474903     0.09000
H1000       H  0.48568691  0.18680497  0.36244638     0.12600
H1001       H  0.53319788  0.07068034  0.33818013     0.12500
H1002       H  0.55630977  0.09194287  0.28269864     0.12300
H1003       H  0.56953567  0.14034038  0.24439292     0.12800
H1004       H  0.51088295  0.20817404  0.30931319     0.14800
C1005       C  0.47108432  0.79445520  0.28303626    -0.05300
C1006       C  0.49786844  0.81710344  0.27377649    -0.05200
C1007       C  0.50743695  0.84401604  0.29563782    -0.23400
C1008       C  0.49111241  0.84797184  0.32758533     0.18800
C1009       C  0.46395890  0.82539692  0.33679316     0.16100
C1010       C  0.45371384  0.79942952  0.31423688    -0.18400
C1011       C  0.44817629  0.82825325  0.36897564    -0.20200
C1012       C  0.45960643  0.85277387  0.39225852    -0.12800
C1013       C  0.48651675  0.87535397  0.38357801     0.03900
C1014       C  0.50188025  0.87339934  0.35090201    -0.24900
H1015       H  0.51248870  0.81316558  0.25041438     0.09000
H1016       H  0.52846798  0.86083384  0.28817297     0.12600
H1017       H  0.43311195  0.78203193  0.32166483     0.12500
H1018       H  0.42728372  0.81121405  0.37634226     0.12300
H1019       H  0.44681141  0.85461209  0.41697404     0.12800
H1020       H  0.52245528  0.89104714  0.34402477     0.14800
C1021       C  0.50918276  0.18618234  0.70810432    -0.05300
C1022       C  0.49354134  0.15521712  0.71859907    -0.05200
C1023       C  0.49072963  0.12752866  0.69572553    -0.23400
C1024       C  0.50187952  0.13097773  0.66151530     0.18800
C1025       C  0.51740514  0.16204555  0.65082991     0.16100
C1026       C  0.52205302  0.18868979  0.67436197    -0.18400
C1027       C  0.52705736  0.16658999  0.61644326    -0.20200
C1028       C  0.52120149  0.14059728  0.59259824    -0.12800
C1029       C  0.50629116  0.10921934  0.60279699     0.03900
C1030       C  0.49696305  0.10442814  0.63752721    -0.24900
H1031       H  0.48215087  0.15266763  0.74384003     0.09000
H1032       H  0.47845122  0.10399387  0.70434957     0.12600
H1033       H  0.53460836  0.21210471  0.66579571     0.12500
H1034       H  0.53869901  0.19047152  0.60786024     0.12300
H1035       H  0.52891391  0.14493029  0.56617182     0.12800
H1036       H  0.48529113  0.08042510  0.64572201     0.14800
C1037       C  0.47895834  0.88211767  0.61068027    -0.05300
C1038       C  0.45191078  0.85921421  0.60362367    -0.05200
C1039       C  0.44260904  0.83384056  0.62717293    -0.23400
C1040       C  0.46071721  0.83033071  0.65805179     0.18800
C1041       C  0.48757136  0.85363384  0.66607303     0.16100
C1042       C  0.49624093  0.87991862  0.64245704    -0.18400
C1043       C  0.50591413  0.84926926  0.69692636    -0.20200
C1044       C  0.49887791  0.82113955  0.71853225    -0.12800
C1045       C  0.47302333  0.79727897  0.70991162     0.03900
C1046       C  0.45338273  0.80278229  0.68015397    -0.24900
H1047       H  0.43782615  0.86104360  0.57967609     0.09000
H1048       H  0.42181050  0.81634874  0.62078414     0.12600
H1049       H  0.51705810  0.89765603  0.64812682     0.12500
H1050       H  0.52662718  0.86673655  0.70361965     0.12300
H1051       H  0.51486309  0.81707263  0.74095628     0.12800
H1052       H  0.43344960  0.78445341  0.67327857     0.14800
C1053       C  0.29255661  0.97964464  0.28693022    -0.05300
C1054       C  0.28906891  0.95270015  0.31083509    -0.05200
C1055       C  0.31255995  0.94909308  0.33794432    -0.23400
C1056       C  0.34045957  0.97193911  0.34115316     0.18800
C1057       C  0.34495691  0.99816592  0.31627478     0.16100
C1058       C  0.32076558  0.00214621  0.28974634    -0.18400
C1059       C  0.37349581  0.02018338  0.31842832    -0.20200
C1060       C  0.39713250  0.01668915  0.34523054    -0.12800
C1061       C  0.39221574  0.99180851  0.37095767     0.03900
C1062       C  0.36385389  0.96926345  0.36876976    -0.24900
H1063       H  0.26775942  0.93480462  0.30876435     0.09000
H1064       H  0.30885742  0.92852444  0.35641540     0.12600
H1065       H  0.32357683  0.02301546  0.27145778     0.12500
H1066       H  0.37751259  0.04018434  0.29940622     0.12300
H1067       H  0.41889836  0.03415319  0.34643549     0.12800
H1068       H  0.36024922  0.94961867  0.38826764     0.14800
C1069       C  0.60752130  0.99798644  0.61456813    -0.05300
C1070       C  0.60204101  0.02259838  0.64040561    -0.05200
C1071       C  0.62552828  0.02642074  0.66740961    -0.23400
C1072       C  0.65457508  0.00509752  0.66959270     0.18800
C1073       C  0.65979887  0.97948170  0.64431686     0.16100
C1074       C  0.63652761  0.97641919  0.61666751    -0.18400
C1075       C  0.68824636  0.95743674  0.64715181    -0.20200
C1076       C  0.71157648  0.96112881  0.67430457    -0.12800
C1077       C  0.70734412  0.98724534  0.69887961     0.03900
C1078       C  0.67854617  0.00904462  0.69648484    -0.24900
H1079       H  0.57983394  0.03943358  0.63927495     0.09000
H1080       H  0.62094447  0.04605037  0.68660388     0.12600
H1081       H  0.64066137  0.95702923  0.59710043     0.12500
H1082       H  0.69250928  0.93738102  0.62832875     0.12300
H1083       H  0.73330353  0.94377050  0.67599816     0.12800
H1084       H  0.67511563  0.02925753  0.71531100     0.14800
C1085       C  0.29752859  0.98223518  0.70206941    -0.05300
C1086       C  0.32101667  0.95486027  0.70390822    -0.05200
C1087       C  0.34754341  0.95185408  0.67968218    -0.23400
C1088       C  0.35081328  0.97615347  0.65314247     0.18800
C1089       C  0.32714929  0.00375851  0.65118526     0.16100
C1090       C  0.30089331  0.00674320  0.67581699    -0.18400
C1091       C  0.32991517  0.02776760  0.62441050    -0.20200
C1092       C  0.35561579  0.02430655  0.59949414    -0.12800
C1093       C  0.37943095  0.99730241  0.60141615     0.03900
C1094       C  0.37716904  0.97336880  0.62844483    -0.24900
H1095       H  0.31854859  0.93571505  0.72400857     0.09000
H1096       H  0.36530301  0.93045087  0.68154712     0.12600
H1097       H  0.28288988  0.02799315  0.67460721     0.12500
H1098       H  0.31206922  0.04910088  0.62262206     0.12300
H1099       H  0.35739197  0.04316245  0.57902960     0.12800
H1100       H  0.39560384  0.95247427  0.62992237     0.14800
C1101       C  0.69507985  0.00123716  0.21323343    -0.05300
C1102       C  0.66396549  0.01741992  0.22227672    -0.05200
C1103       C  0.63524543  0.01551789  0.20032241    -0.23400
C1104       C  0.63759787  0.99822413  0.16863024     0.18800
C1105       C  0.66853916  0.98109949  0.16016137     0.16100
C1106       C  0.69643665  0.98194976  0.18279034    -0.18400
C1107       C  0.67193389  0.96466822  0.12838356    -0.20200
C1108       C  0.64536025  0.96606245  0.10446246    -0.12800
C1109       C  0.61448924  0.98321097  0.11204311     0.03900
C1110       C  0.61033586  0.99869706  0.14462725    -0.24900
H1111       H  0.66227073  0.03298423  0.24523116     0.09000
H1112       H  0.61179020  0.02887529  0.20737517     0.12600
H1113       H  0.72010603  0.96892919  0.17571475     0.12500
H1114       H  0.69557331  0.95147022  0.12162035     0.12300
H1115       H  0.64895704  0.95354983  0.07986360     0.12800
H1116       H  0.58661505  0.01210809  0.15070361     0.14800
C1117       C  0.70795213  0.01084370  0.29302521    -0.05300
C1118       C  0.70594397  0.03925992  0.31509905    -0.05200
C1119       C  0.68390369  0.03885759  0.34345357    -0.23400
C1120       C  0.66340677  0.00994096  0.35022877     0.18800
C1121       C  0.66493178  0.98120950  0.32794314     0.16100
C1122       C  0.68727232  0.98184009  0.29940024    -0.18400
C1123       C  0.64386557  0.95256398  0.33453514    -0.20200
C1124       C  0.62077282  0.95288153  0.36222044    -0.12800
C1125       C  0.61913266  0.98137572  0.38426291     0.03900
C1126       C  0.64089525  0.00960031  0.37852517    -0.24900
H1127       H  0.72196530  0.06163245  0.31048548     0.09000
H1128       H  0.68294948  0.06112988  0.36012022     0.12600
H1129       H  0.68916638  0.95975015  0.28256283     0.12500
H1130       H  0.64464260  0.93031329  0.31783041     0.12300
H1131       H  0.60378150  0.93108487  0.36620231     0.12800
H1132       H  0.63912678  0.03187463  0.39517404     0.14800
C1133       C  0.28148789  0.80460186  0.45076304    -0.05300
C1134       C  0.27861382  0.83480747  0.43123773    -0.05200
C1135       C  0.30149789  0.86226348  0.43679802    -0.23400
C1136       C  0.32772772  0.85952288  0.46164058     0.18800
C1137       C  0.32944750  0.82978783  0.48246740     0.16100
C1138       C  0.30597707  0.80292808  0.47727341    -0.18400
C1139       C  0.35593724  0.82636378  0.50673533    -0.20200
C1140       C  0.38169548  0.85134561  0.50919102    -0.12800
C1141       C  0.38080590  0.88065864  0.48820806     0.03900
C1142       C  0.35318320  0.88511570  0.46506461    -0.24900
H1143       H  0.26006887  0.83637649  0.41050907     0.09000
H1144       H  0.29973627  0.88490013  0.42061579     0.12600
H1145       H  0.30817031  0.77960153  0.49243843     0.12500
H1146       H  0.35740671  0.80376788  0.52300133     0.12300
H1147       H  0.40239973  0.84775260  0.52747839     0.12800
H1148       H  0.35237654  0.90772565  0.44873085     0.14800
C1149       C  0.61251384  0.87556120  0.50192089    -0.05300
C1150       C  0.60590610  0.84376117  0.48622102    -0.05200
C1151       C  0.63072152  0.81788800  0.48635530    -0.23400
C1152       C  0.66240318  0.82301400  0.50284591     0.18800
C1153       C  0.66954255  0.85465380  0.51906744     0.16100
C1154       C  0.64465653  0.88101196  0.51811333    -0.18400
C1155       C  0.70105468  0.85886078  0.53655288    -0.20200
C1156       C  0.72447760  0.83141941  0.53913340    -0.12800
C1157       C  0.71705994  0.79975687  0.52347453     0.03900
C1158       C  0.68645748  0.79635966  0.50440676    -0.24900
H1159       H  0.58160866  0.83902866  0.47335313     0.09000
H1160       H  0.62490759  0.79362320  0.47397006     0.12600
H1161       H  0.64995492  0.90536860  0.53056156     0.12500
H1162       H  0.70696457  0.88288939  0.54932103     0.12300
H1163       H  0.74745549  0.83448724  0.55459442     0.12800
H1164       H  0.68051872  0.77209663  0.49202705     0.14800
C1165       C  0.61387181  0.10560754  0.48494873    -0.05300
C1166       C  0.60387878  0.13657476  0.46907856    -0.05200
C1167       C  0.62701844  0.16370104  0.46559056    -0.23400
C1168       C  0.66047580  0.16076031  0.47854456     0.18800
C1169       C  0.67129383  0.12968880  0.49399073     0.16100
C1170       C  0.64806284  0.10192468  0.49649973    -0.18400
C1171       C  0.70454540  0.12768127  0.50809676    -0.20200
C1172       C  0.72595241  0.15677887  0.50864716    -0.12800
C1173       C  0.71504608  0.18786502  0.49365694     0.03900
C1174       C  0.68263858  0.18910772  0.47769898    -0.24900
H1175       H  0.57792994  0.13999114  0.45939045     0.09000
H1176       H  0.61838296  0.18738294  0.45368270     0.12600
H1177       H  0.65608047  0.07818870  0.50872588     0.12500
H1178       H  0.71332171  0.10416354  0.52019688     0.12300
H1179       H  0.75032631  0.15523228  0.52203229     0.12800
H1180       H  0.67394783  0.21283148  0.46588720     0.14800
C1181       C  0.28569835  0.18828849  0.46976785    -0.05300
C1182       C  0.27886184  0.15977508  0.44876395    -0.05200
C1183       C  0.30121658  0.13141403  0.44899670    -0.23400
C1184       C  0.33098973  0.13172645  0.46965070     0.18800
C1185       C  0.33714680  0.16008805  0.49147118     0.16100
C1186       C  0.31412222  0.18757329  0.49194139    -0.18400
C1187       C  0.36713589  0.16148369  0.51135398    -0.20200
C1188       C  0.39153924  0.13544446  0.50902579    -0.12800
C1189       C  0.38601827  0.10710079  0.48747935     0.03900
C1190       C  0.35532322  0.10494177  0.46822302    -0.24900
H1191       H  0.25733787  0.16013461  0.43106909     0.09000
H1192       H  0.29604392  0.10997261  0.43201532     0.12600
H1193       H  0.31941709  0.20954977  0.50826038     0.12500
H1194       H  0.37209788  0.18312473  0.52816085     0.12300
H1195       H  0.41469315  0.13725392  0.52447573     0.12800
H1196       H  0.35095357  0.08308688  0.45151318     0.14800
C1197       C  0.89094252  0.99245964  0.61018524    -0.05300
C1198       C  0.90060694  0.97493754  0.64021131    -0.05200
C1199       C  0.87675637  0.96873501  0.66605911    -0.23400
C1200       C  0.84309825  0.98101906  0.66283998     0.18800
C1201       C  0.83305687  0.99954691  0.63324602     0.16100
C1202       C  0.85695213  0.00452360  0.60657451    -0.18400
C1203       C  0.79970428  0.01349175  0.63150853    -0.20200
C1204       C  0.77724630  0.01040322  0.65959512    -0.12800
C1205       C  0.78740927  0.99197152  0.68896760     0.03900
C1206       C  0.81986592  0.97626103  0.68964490    -0.24900
H1207       H  0.92659790  0.96544249  0.64349955     0.09000
H1208       H  0.88483636  0.95489221  0.68886636     0.12600
H1209       H  0.84942732  0.01833287  0.58355046     0.12500
H1210       H  0.79161714  0.02807196  0.60918406     0.12300
H1211       H  0.75271470  0.02359614  0.65885751     0.12800
H1212       H  0.82786014  0.96177259  0.71210231     0.14800
C1213       C  0.11876892  0.99895592  0.60463631    -0.05300
C1214       C  0.11252768  0.02202263  0.63155958    -0.05200
C1215       C  0.13709142  0.02732431  0.65682564    -0.23400
C1216       C  0.16783359  0.00869959  0.65621831     0.18800
C1217       C  0.17471272  0.98532221  0.62929546     0.16100
C1218       C  0.15031124  0.98119980  0.60295449    -0.18400
C1219       C  0.20501318  0.96551544  0.63032641    -0.20200
C1220       C  0.22675032  0.96713675  0.65908944    -0.12800
C1221       C  0.21897368  0.98961110  0.68625169     0.03900
C1222       C  0.19065528  0.01162888  0.68351569    -0.24900
H1223       H  0.08860511  0.03625031  0.63288597     0.09000
H1224       H  0.13152965  0.04514963  0.67748452     0.12600
H1225       H  0.15510738  0.96330483  0.58215649     0.12500
H1226       H  0.21078422  0.94743277  0.60996678     0.12300
H1227       H  0.24835518  0.94964136  0.66087635     0.12800
H1228       H  0.18488749  0.02941967  0.70418420     0.14800
C1229       C  0.11126965  0.97771509  0.37747595    -0.05300
C1230       C  0.10061244  0.96168541  0.34694786    -0.05200
C1231       C  0.12363458  0.95737979  0.31989246    -0.23400
C1232       C  0.15741558  0.96968700  0.32276561     0.18800
C1233       C  0.16858666  0.98539181  0.35353129     0.16100
C1234       C  0.14558527  0.98865001  0.38103905    -0.18400
C1235       C  0.20199101  0.99906864  0.35558609    -0.20200
C1236       C  0.22349636  0.99870438  0.32678295    -0.12800
C1237       C  0.21242489  0.98314809  0.29617388     0.03900
C1238       C  0.17968616  0.96788127  0.29475003    -0.24900
H1239       H  0.07435842  0.95262134  0.34392086     0.09000
H1240       H  0.11474448  0.94535950  0.29639532     0.12600
H1241       H  0.15389692  0.00114214  0.40451227     0.12500
H1242       H  0.21083575  0.01149661  0.37887482     0.12300
H1243       H  0.24807195  0.01181550  0.32815084     0.12800
H1244       H  0.17091895  0.95584595  0.27119318     0.14800
C1245       C  0.88745022  0.01960338  0.38461285    -0.05300
C1246       C  0.89548854  0.04309889  0.35837628    -0.05200
C1247       C  0.87141421  0.05049466  0.33286853    -0.23400
C1248       C  0.83943081  0.03366631  0.33284483     0.18800
C1249       C  0.83076833  0.01095956  0.35994585     0.16100
C1250       C  0.85457340  0.00474463  0.38617995    -0.18400
C1251       C  0.79938917  0.99313787  0.35917158    -0.20200
C1252       C  0.77788849  0.99584562  0.33057731    -0.12800
C1253       C  0.78670693  0.01762869  0.30304031     0.03900
C1254       C  0.81692575  0.03749507  0.30508841    -0.24900
H1255       H  0.92051963  0.05544472  0.35748884     0.09000
H1256       H  0.87834758  0.06817963  0.31242632     0.12600
H1257       H  0.84836189  0.98674455  0.40660844     0.12500
H1258       H  0.79248312  0.97551475  0.37967584     0.12300
H1259       H  0.75548141  0.97934832  0.32935629     0.12800
H1260       H  0.82394234  0.05447433  0.28407108     0.14800
C1261       C  0.11309237  0.87685554  0.48639910    -0.05300
C1262       C  0.13199251  0.86658347  0.51533175    -0.05200
C1263       C  0.15879591  0.84273304  0.51220618    -0.23400
C1264       C  0.16738952  0.82907888  0.47996341     0.18800
C1265       C  0.14877619  0.83973458  0.45051627     0.16100
C1266       C  0.12169332  0.86356391  0.45394717    -0.18400
C1267       C  0.15769473  0.82642617  0.41819985    -0.20200
C1268       C  0.18434582  0.80241552  0.41520710    -0.12800
C1269       C  0.20248131  0.79135413  0.44434303     0.03900
C1270       C  0.19422777  0.80498261  0.47664210    -0.24900
H1271       H  0.12609264  0.87724149  0.54036107     0.09000
H1272       H  0.17291925  0.83510318  0.53497621     0.12600
H1273       H  0.10763402  0.87215005  0.43143888     0.12500
H1274       H  0.14397888  0.83445215  0.39531094     0.12300
H1275       H  0.19089516  0.79226777  0.39013527     0.12800
H1276       H  0.20853994  0.79655769  0.49902052     0.14800
C1277       C  0.88152051  0.88643043  0.49863556    -0.05300
C1278       C  0.85456155  0.88794620  0.47462641    -0.05200
C1279       C  0.82762047  0.86391244  0.47563639    -0.23400
C1280       C  0.82673834  0.83843792  0.50123393     0.18800
C1281       C  0.85362387  0.83705116  0.52578157     0.16100
C1282       C  0.88104471  0.86072725  0.52404028    -0.18400
C1283       C  0.85255843  0.81209406  0.55176671    -0.20200
C1284       C  0.82529145  0.78864274  0.55336399    -0.12800
C1285       C  0.79866608  0.78931923  0.52888989     0.03900
C1286       C  0.79951375  0.81438087  0.50278658    -0.24900
H1287       H  0.85463110  0.90750805  0.45476637     0.09000
H1288       H  0.80734858  0.86541887  0.45656399     0.12600
H1289       H  0.90165570  0.85964285  0.54282880     0.12500
H1290       H  0.87279975  0.81071581  0.57089192     0.12300
H1291       H  0.82500592  0.76959883  0.57369743     0.12800
H1292       H  0.77927804  0.81483620  0.48362184     0.14800
C1293       C  0.79487904  0.19864505  0.49107515    -0.05300
C1294       C  0.79149465  0.17537411  0.46370100    -0.05200
C1295       C  0.81478100  0.14827311  0.45981697    -0.23400
C1296       C  0.84243269  0.14463609  0.48270909     0.18800
C1297       C  0.84665924  0.16868878  0.50965558     0.16100
C1298       C  0.82255247  0.19515559  0.51396991    -0.18400
C1299       C  0.87499377  0.16592246  0.53178828    -0.20200
C1300       C  0.89904080  0.13966443  0.52720717    -0.12800
C1301       C  0.89457960  0.11522062  0.50110981     0.03900
C1302       C  0.86609560  0.11758226  0.47903014    -0.24900
H1303       H  0.77041942  0.17795894  0.44566584     0.09000
H1304       H  0.81127728  0.13030650  0.43884858     0.12600
H1305       H  0.82509542  0.21298344  0.53519801     0.12500
H1306       H  0.87868564  0.18418976  0.55246457     0.12300
H1307       H  0.92084255  0.13797389  0.54451292     0.12800
H1308       H  0.86281141  0.09881260  0.45870248     0.14800
C1309       C  0.12385397  0.10272135  0.48951950    -0.05300
C1310       C  0.15036026  0.10036684  0.51392968    -0.05200
C1311       C  0.17713450  0.12448950  0.51431443    -0.23400
C1312       C  0.17822587  0.15091734  0.48975774     0.18800
C1313       C  0.15207879  0.15289921  0.46446826     0.16100
C1314       C  0.12483120  0.12900781  0.46475117    -0.18400
C1315       C  0.15355714  0.17885996  0.43946287    -0.20200
C1316       C  0.18033757  0.20292693  0.43981519    -0.12800
C1317       C  0.20603489  0.20158450  0.46515535     0.03900
C1318       C  0.20492732  0.17541795  0.49006477    -0.24900
H1319       H  0.14990813  0.08021320  0.53319224     0.09000
H1320       H  0.19696515  0.12247494  0.53380197     0.12600
H1321       H  0.10459508  0.13060642  0.44559837     0.12500
H1322       H  0.13396874  0.18061114  0.41970398     0.12300
H1323       H  0.18110642  0.22276477  0.42026715     0.12800
H1324       H  0.22464441  0.17442099  0.50974966     0.14800
C1325       C  0.00619844  0.69165735  0.20751887    -0.05300
C1326       C  0.02054373  0.65994419  0.21737420    -0.05200
C1327       C  0.02027672  0.63194039  0.19471110    -0.23400
C1328       C  0.00658593  0.63545647  0.16148619     0.18800
C1329       C  0.99198848  0.66711497  0.15149236     0.16100
C1330       C  0.99093198  0.69436856  0.17478117    -0.18400
C1331       C  0.97946081  0.67146998  0.11800627    -0.20200
C1332       C  0.98146553  0.64463193  0.09442161    -0.12800
C1333       C  0.99533247  0.61273171  0.10411441     0.03900
C1334       C  0.00775306  0.60821433  0.13783631    -0.24900
H1335       H  0.03327534  0.65684888  0.24180150     0.09000
H1336       H  0.03182862  0.60789232  0.20275549     0.12600
H1337       H  0.97891382  0.71819754  0.16680047     0.12500
H1338       H  0.96849074  0.69578413  0.10991967     0.12300
H1339       H  0.97169438  0.64869284  0.06866212     0.12800
H1340       H  0.01896173  0.58383084  0.14539870     0.14800
C1341       C  0.00842049  0.77793768  0.30362593    -0.05300
C1342       C  0.03367572  0.77486047  0.32925351    -0.05200
C1343       C  0.03421501  0.79787058  0.35694778    -0.23400
C1344       C  0.01026486  0.82491826  0.35855920     0.18800
C1345       C  0.98435928  0.82748866  0.33318725     0.16100
C1346       C  0.98306700  0.80343927  0.30662321    -0.18400
C1347       C  0.96142499  0.85529983  0.33344802    -0.20200
C1348       C  0.96480386  0.88113404  0.35799221    -0.12800
C1349       C  0.99039924  0.87892118  0.38325203     0.03900
C1350       C  0.01263167  0.85037129  0.38400179    -0.24900
H1351       H  0.05421936  0.75628542  0.32684672     0.09000
H1352       H  0.05447722  0.79570619  0.37598186     0.12600
H1353       H  0.96381336  0.80614823  0.28659667     0.12500
H1354       H  0.94153680  0.85759470  0.31404473     0.12300
H1355       H  0.94724056  0.90276428  0.35746346     0.12800
H1356       H  0.03253627  0.84876859  0.40349617     0.14800
C1357       C  0.99121397  0.30167753  0.77938853    -0.05300
C1358       C  0.01632192  0.32712155  0.77344711    -0.05200
C1359       C  0.02164252  0.35330593  0.79766547    -0.23400
C1360       C  0.00308800  0.35331150  0.82875457     0.18800
C1361       C  0.97735606  0.32819756  0.83430115     0.16100
C1362       C  0.97044880  0.30391971  0.80891579    -0.18400
C1363       C  0.96029520  0.32628252  0.86598939    -0.20200
C1364       C  0.96882956  0.34897835  0.89225677    -0.12800
C1365       C  0.99321382  0.37505156  0.88673401     0.03900
C1366       C  0.01029425  0.37722308  0.85481024    -0.24900
H1367       H  0.03317946  0.32571489  0.75131936     0.09000
H1368       H  0.04160312  0.37228906  0.79301496     0.12600
H1369       H  0.95059003  0.28478892  0.81353880     0.12500
H1370       H  0.94088401  0.30674431  0.87072047     0.12300
H1371       H  0.95560636  0.34678845  0.91661158     0.12800
H1372       H  0.02939956  0.39716235  0.85049862     0.14800
C1373       C  0.01057436  0.10901439  0.60774089    -0.05300
C1374       C  0.02875822  0.10058803  0.63773452    -0.05200
C1375       C  0.03145075  0.12395410  0.66453471    -0.23400
C1376       C  0.01525961  0.15593408  0.66220029     0.18800
C1377       C  0.99641135  0.16483954  0.63240778     0.16100
C1378       C  0.99459786  0.14139474  0.60494794    -0.18400
C1379       C  0.97915402  0.19659283  0.63119687    -0.20200
C1380       C  0.97987121  0.21869251  0.65964337    -0.12800
C1381       C  0.99840669  0.20953119  0.68926060     0.03900
C1382       C  0.01667254  0.17853764  0.68990963    -0.24900
H1383       H  0.04114164  0.07581368  0.64039811     0.09000
H1384       H  0.04570936  0.11674487  0.68737095     0.12600
H1385       H  0.98006205  0.14782617  0.58204419     0.12500
H1386       H  0.96425558  0.20379141  0.60878045     0.12300
H1387       H  0.96487633  0.24214496  0.65902203     0.12800
H1388       H  0.03089606  0.17132225  0.71280124     0.14800
C1389       C  0.01994717  0.68672739  0.77912998    -0.05300
C1390       C  0.99218895  0.66429376  0.77299446    -0.05200
C1391       C  0.98576436  0.63646919  0.79512679    -0.23400
C1392       C  0.00659772  0.63102800  0.82414392     0.18800
C1393       C  0.03507736  0.65303849  0.82990830     0.16100
C1394       C  0.04193657  0.68009425  0.80705523    -0.18400
C1395       C  0.05533594  0.64875636  0.85935868    -0.20200
C1396       C  0.04697124  0.62349804  0.88339808    -0.12800
C1397       C  0.01881357  0.60145906  0.87813959     0.03900
C1398       C  0.99892202  0.60484157  0.84812236    -0.24900
H1399       H  0.97430091  0.66931918  0.75227267     0.09000
H1400       H  0.96365413  0.62010327  0.79035905     0.12600
H1401       H  0.06338619  0.69728046  0.81211535     0.12500
H1402       H  0.07717521  0.66547038  0.86422578     0.12300
H1403       H  0.06267335  0.62096903  0.90621458     0.12800
H1404       H  0.97696044  0.58803895  0.84413101     0.14800
C1405       C  0.01108871  0.78291413  0.69309955    -0.05300
C1406       C  0.02943816  0.77512370  0.66300385    -0.05200
C1407       C  0.02778706  0.79695611  0.63445836    -0.23400
C1408       C  0.00840059  0.82735575  0.63585548     0.18800
C1409       C  0.98935912  0.83511688  0.66586575     0.16100
C1410       C  0.99054130  0.81265405  0.69412206    -0.18400
C1411       C  0.97078426  0.86598169  0.66765964    -0.20200
C1412       C  0.97252829  0.88972947  0.64067371    -0.12800
C1413       C  0.99202377  0.88261672  0.61104680     0.03900
C1414       C  0.00902103  0.85084693  0.60837834    -0.24900
H1415       H  0.04601438  0.75277374  0.66197507     0.09000
H1416       H  0.04270623  0.79072192  0.61175089     0.12600
H1417       H  0.97647685  0.81888194  0.71740355     0.12500
H1418       H  0.95586092  0.87226121  0.69036723     0.12300
H1419       H  0.95881762  0.91379699  0.64303050     0.12800
H1420       H  0.02415033  0.84518205  0.58563426     0.14800
C1421       C  0.11531191  0.61521176  0.48666625    -0.05300
C1422       C  0.14518283  0.61360031  0.50693409    -0.05200
C1423       C  0.17140579  0.63798482  0.50298544    -0.23400
C1424       C  0.16856409  0.66397307  0.47810419     0.18800
C1425       C  0.13830526  0.66646333  0.45806584     0.16100
C1426       C  0.11156719  0.64232397  0.46287159    -0.18400
C1427       C  0.13596260  0.69228863  0.43279616    -0.20200
C1428       C  0.16376297  0.71467259  0.42673378    -0.12800
C1429       C  0.19412955  0.71171533  0.44603889     0.03900
C1430       C  0.19605101  0.68667868  0.47208809    -0.24900
H1431       H  0.14831820  0.59323862  0.52570355     0.09000
H1432       H  0.19434752  0.63592744  0.51872537     0.12600
H1433       H  0.08859753  0.64366202  0.44707212     0.12500
H1434       H  0.11304664  0.69451214  0.41705492     0.12300
H1435       H  0.16201739  0.73330609  0.40613003     0.12800
H1436       H  0.21951495  0.68423737  0.48703519     0.14800
C1437       C  0.89283357  0.37827243  0.50884218    -0.05300
C1438       C  0.86644700  0.38452091  0.53270591    -0.05200
C1439       C  0.84058404  0.36033671  0.53855427    -0.23400
C1440       C  0.83984861  0.32971296  0.51975840     0.18800
C1441       C  0.86619470  0.32266305  0.49567585     0.16100
C1442       C  0.89315238  0.34674131  0.49088559    -0.18400
C1443       C  0.86412313  0.29239498  0.47600560    -0.20200
C1444       C  0.83533547  0.27052814  0.47889468    -0.12800
C1445       C  0.80876383  0.27789100  0.50242714     0.03900
C1446       C  0.81211580  0.30694687  0.52360854    -0.24900
H1447       H  0.86586530  0.40830927  0.54698508     0.09000
H1448       H  0.82050983  0.36611013  0.55706562     0.12600
H1449       H  0.91337563  0.34168027  0.47231769     0.12500
H1450       H  0.88391771  0.28648363  0.45725879     0.12300
H1451       H  0.83323089  0.24887902  0.46160414     0.12800
H1452       H  0.79208303  0.31286629  0.54213158     0.14800
C1453       C  0.11989791  0.38592454  0.47985812    -0.05300
C1454       C  0.14610699  0.39494201  0.45663380    -0.05200
C1455       C  0.17025531  0.37077821  0.44607147    -0.23400
C1456       C  0.16932983  0.33739648  0.45946606     0.18800
C1457       C  0.14352310  0.32795975  0.48337526     0.16100
C1458       C  0.11839342  0.35216537  0.49292801    -0.18400
C1459       C  0.14405130  0.29486704  0.49789207    -0.20200
C1460       C  0.17096013  0.27213289  0.49010749    -0.12800
C1461       C  0.19689868  0.28170480  0.46663559     0.03900
C1462       C  0.19491115  0.31389400  0.45043221    -0.24900
H1463       H  0.14741690  0.42059540  0.44594263     0.09000
H1464       H  0.19004331  0.37839906  0.42787594     0.12600
H1465       H  0.09819986  0.34503308  0.51089289     0.12500
H1466       H  0.12465037  0.28720088  0.51646830     0.12300
H1467       H  0.17230912  0.24793450  0.50378078     0.12800
H1468       H  0.21460969  0.32150918  0.43211906     0.14800
C1469       C  0.88860401  0.60699963  0.51698109    -0.05300
C1470       C  0.86459726  0.59824779  0.54260419    -0.05200
C1471       C  0.84051756  0.62224442  0.55398265    -0.23400
C1472       C  0.83941716  0.65508992  0.53919182     0.18800
C1473       C  0.86349919  0.66427340  0.51346125     0.16100
C1474       C  0.88853729  0.64037745  0.50305656    -0.18400
C1475       C  0.86118565  0.69666675  0.49770564    -0.20200
C1476       C  0.83401255  0.71885911  0.50588568    -0.12800
C1477       C  0.80959907  0.70963843  0.53104622     0.03900
C1478       C  0.81347525  0.67821140  0.54853541    -0.24900
H1479       H  0.86487322  0.57293273  0.55429111     0.09000
H1480       H  0.82223714  0.61483828  0.57376307     0.12600
H1481       H  0.90722257  0.64731254  0.48346573     0.12500
H1482       H  0.87928298  0.70407169  0.47776824     0.12300
H1483       H  0.83120059  0.74228990  0.49116042     0.12800
H1484       H  0.79497066  0.67079777  0.56811702     0.14800
C1485       C  0.11424483  0.49828021  0.37650193    -0.05300
C1486       C  0.14510369  0.48023043  0.38187259    -0.05200
C1487       C  0.17139202  0.48093922  0.35742472    -0.23400
C1488       C  0.16777979  0.50062420  0.32750421     0.18800
C1489       C  0.13690725  0.51896553  0.32157839     0.16100
C1490       C  0.10991581  0.51707334  0.34582386    -0.18400
C1491       C  0.13438422  0.54012593  0.29238979    -0.20200
C1492       C  0.16262356  0.54407258  0.27016396    -0.12800
C1493       C  0.19327898  0.52578274  0.27592269     0.03900
C1494       C  0.19529528  0.50357808  0.30433247    -0.24900
H1495       H  0.14897929  0.46562677  0.40521906     0.09000
H1496       H  0.19498979  0.46691949  0.36243945     0.12600
H1497       H  0.08635907  0.53145482  0.34165818     0.12500
H1498       H  0.11120794  0.55491549  0.28768306     0.12300
H1499       H  0.16090743  0.56284176  0.24981839     0.12800
H1500       H  0.21916784  0.48998291  0.30940197     0.14800
C1501       C  0.88514701  0.48829954  0.38689873    -0.23900
C1502       C  0.85661766  0.46728127  0.39414193    -0.05200
C1503       C  0.83048222  0.46320912  0.36999585    -0.23400
C1504       C  0.83214595  0.48075405  0.33858355     0.18800
C1505       C  0.86083760  0.50188271  0.33086884     0.16100
C1506       C  0.88749672  0.50512702  0.35496044    -0.18400
C1507       C  0.86173863  0.52014250  0.29969893    -0.20200
C1508       C  0.83369787  0.51864086  0.27714797    -0.12800
C1509       C  0.80488893  0.49825270  0.28521296     0.03900
C1510       C  0.80479205  0.47862158  0.31544770    -0.24900
H1511       H  0.85475346  0.45366818  0.41839697     0.09000
H1512       H  0.80864242  0.44689152  0.37616449     0.12600
H1513       H  0.90951990  0.52143018  0.34933475     0.12500
H1514       H  0.88345924  0.53657072  0.29342564     0.12300
H1515       H  0.83387714  0.53452581  0.25426375     0.12800
H1516       H  0.78253358  0.46287236  0.32172532     0.14800
C1517       C  0.12145889  0.50690042  0.60593195    -0.05300
C1518       C  0.14785854  0.53079284  0.59958398    -0.05200
C1519       C  0.17240814  0.53790847  0.62472344    -0.23400
C1520       C  0.17146724  0.52058604  0.65633764     0.18800
C1521       C  0.14536504  0.49612871  0.66298018     0.16100
C1522       C  0.12005282  0.48986499  0.63789950    -0.18400
C1523       C  0.14559212  0.47796560  0.69425421    -0.20200
C1524       C  0.17237688  0.48286948  0.71796566    -0.12800
C1525       C  0.19865346  0.50692344  0.71128272     0.03900
C1526       C  0.19703057  0.52656362  0.68088118    -0.24900
H1527       H  0.14899889  0.54461637  0.57540612     0.09000
H1528       H  0.19240036  0.55665545  0.61926665     0.12600
H1529       H  0.09968018  0.47139891  0.64294586     0.12500
H1530       H  0.12588234  0.45894110  0.69972157     0.12300
H1531       H  0.17325193  0.46663203  0.74052069     0.12800
H1532       H  0.21674055  0.54560935  0.67544238     0.14800
C1533       C  0.80932943  0.50558376  0.71306907    -0.05300
C1534       C  0.83556701  0.52971763  0.71930849    -0.05200
C1535       C  0.86436917  0.53158988  0.69736068    -0.23400
C1536       C  0.86687612  0.50972162  0.66864676     0.18800
C1537       C  0.84092259  0.48470833  0.66330426     0.16100
C1538       C  0.81295696  0.48241904  0.68580209    -0.18400
C1539       C  0.84222097  0.46332595  0.63453002    -0.20200
C1540       C  0.86837010  0.46728615  0.61043858    -0.12800
C1541       C  0.89428643  0.49204549  0.61488658     0.03900
C1542       C  0.89394990  0.51293632  0.64449671    -0.24900
H1543       H  0.83296443  0.54812428  0.73999958     0.09000
H1544       H  0.88388512  0.55098958  0.70200932     0.12600
H1545       H  0.79276282  0.46370878  0.68093264     0.12500
H1546       H  0.82246360  0.44408427  0.63015111     0.12300
H1547       H  0.86838600  0.45083417  0.58809228     0.12800
H1548       H  0.91378813  0.53228167  0.64799345     0.14800
C1549       C  0.01217401  0.69964867  0.28875213    -0.05300
C1550       C  0.04417448  0.69109757  0.30306279    -0.05200
C1551       C  0.04654710  0.66641493  0.32898836    -0.23400
C1552       C  0.01685013  0.64967295  0.34093423     0.18800
C1553       C  0.98442196  0.65741723  0.32612012     0.16100
C1554       C  0.98228251  0.68249742  0.29998994    -0.18400
C1555       C  0.95486771  0.64007428  0.33798006    -0.20200
C1556       C  0.95747389  0.61555209  0.36432575    -0.12800
C1557       C  0.98954994  0.60838215  0.37936113     0.03900
C1558       C  0.01912380  0.62537678  0.36752674    -0.24900
H1559       H  0.06734910  0.70388101  0.29414161     0.09000
H1560       H  0.07158468  0.66057348  0.33984461     0.12600
H1561       H  0.95760644  0.68904054  0.28872346     0.12500
H1562       H  0.92982424  0.64546589  0.32691532     0.12300
H1563       H  0.93449070  0.60228875  0.37310416     0.12800
H1564       H  0.04392810  0.61946999  0.37894472     0.14800
C1565       C  0.00362752  0.28848790  0.69959177    -0.05300
C1566       C  0.03155226  0.28396197  0.67698068    -0.05200
C1567       C  0.03671753  0.30642251  0.64935140    -0.23400
C1568       C  0.01419960  0.33407092  0.64406086     0.18800
C1569       C  0.98651393  0.33932773  0.66725590     0.16100
C1570       C  0.98135773  0.31644368  0.69476538    -0.18400
C1571       C  0.96437334  0.36733668  0.66247730    -0.20200
C1572       C  0.96984743  0.39018467  0.63531358    -0.12800
C1573       C  0.99704806  0.38503185  0.61202174     0.03900
C1574       C  0.01897866  0.35669413  0.61619237    -0.24900
H1575       H  0.04911509  0.26264909  0.68055027     0.09000
H1576       H  0.05822621  0.30210429  0.63208909     0.12600
H1577       H  0.95970011  0.31987337  0.71205088     0.12500
H1578       H  0.94302719  0.37175446  0.67991426     0.12300
H1579       H  0.95261289  0.41188953  0.63227439     0.12800
H1580       H  0.04014465  0.35285222  0.59837005     0.14800
C1581       C  0.01855576  0.61010270  0.60938306    -0.05300
C1582       C  0.04474239  0.60389538  0.63355118    -0.05200
C1583       C  0.04936607  0.62574279  0.66161909    -0.23400
C1584       C  0.02733656  0.65382395  0.66650969     0.18800
C1585       C  0.00080813  0.66030049  0.64237824     0.16100
C1586       C  0.99696554  0.63874103  0.61356449    -0.18400
C1587       C  0.97818578  0.68782061  0.64790750    -0.20200
C1588       C  0.98203508  0.70889371  0.67673639    -0.12800
C1589       C  0.00900248  0.70340611  0.70020936     0.03900
C1590       C  0.03137112  0.67550205  0.69511816    -0.24900
H1591       H  0.06159596  0.58186842  0.63074836     0.09000
H1592       H  0.06979427  0.62032134  0.67980618     0.12600
H1593       H  0.97640899  0.64334325  0.59527147     0.12500
H1594       H  0.95748138  0.69302531  0.62997879     0.12300
H1595       H  0.96424681  0.72997624  0.68048755     0.12800
H1596       H  0.05228706  0.67117969  0.71305018     0.14800
C1597       C  0.03013064  0.30528386  0.21434065    -0.05300
C1598       C  0.04648228  0.33681331  0.22097386    -0.05200
C1599       C  0.04015762  0.36539739  0.19976265    -0.23400
C1600       C  0.01791663  0.36254028  0.17132628     0.18800
C1601       C  0.00024846  0.33127180  0.16570695     0.16100
C1602       C  0.00601425  0.30327089  0.18750862    -0.18400
C1603       C  0.97855631  0.32769690  0.13717972    -0.20200
C1604       C  0.97606839  0.35406063  0.11301341    -0.12800
C1605       C  0.99454997  0.38479815  0.11731931     0.03900
C1606       C  0.01441466  0.38950175  0.14732830    -0.24900
H1607       H  0.06538493  0.33892971  0.24127478     0.09000
H1608       H  0.05387690  0.38918847  0.20460785     0.12600
H1609       H  0.99296149  0.27911020  0.18247011     0.12500
H1610       H  0.96464997  0.30391864  0.13276328     0.12300
H1611       H  0.96017681  0.35015095  0.09047361     0.12800
H1612       H  0.02876063  0.41317876  0.15087813     0.14800
C1613       C  0.00498276  0.10865381  0.37804975    -0.05300
C1614       C  0.99049958  0.10154709  0.34574542    -0.05200
C1615       C  0.99231005  0.12566827  0.31919463    -0.23400
C1616       C  0.00942397  0.15705449  0.32415828     0.18800
C1617       C  0.02375304  0.16486294  0.35654188     0.16100
C1618       C  0.02095556  0.14081046  0.38350664    -0.18400
C1619       C  0.04160243  0.19606614  0.36092930    -0.20200
C1620       C  0.04637775  0.21863255  0.33311157    -0.12800
C1621       C  0.03286111  0.21061096  0.30062955     0.03900
C1622       C  0.01353822  0.18013518  0.29679923    -0.24900
H1623       H  0.97791652  0.07716214  0.34091346     0.09000
H1624       H  0.98114586  0.11936246  0.29446752     0.12600
H1625       H  0.03239722  0.14654415  0.40825198     0.12500
H1626       H  0.05288447  0.20246047  0.38556789     0.12300
H1627       H  0.06181607  0.24148248  0.33679927     0.12800
H1628       H  0.00243759  0.17378104  0.27204712     0.14800
C1629       C  0.00376582  0.38045091  0.38230690    -0.05300
C1630       C  0.97290086  0.36621871  0.36997401    -0.05200
C1631       C  0.97347808  0.34049331  0.34478253    -0.23400
C1632       C  0.00497555  0.32861661  0.33153998     0.18800
C1633       C  0.03620182  0.34290517  0.34390354     0.16100
C1634       C  0.03536266  0.36867930  0.36923978    -0.18400
C1635       C  0.06771829  0.33125288  0.33060197    -0.20200
C1636       C  0.06830153  0.30579630  0.30527959    -0.12800
C1637       C  0.03749936  0.29147171  0.29292193     0.03900
C1638       C  0.00585196  0.30289170  0.30608231    -0.24900
H1639       H  0.94834660  0.37505509  0.37986758     0.09000
H1640       H  0.94931269  0.32992370  0.33563070     0.12600
H1641       H  0.05921650  0.37966341  0.37878763     0.12500
H1642       H  0.09187588  0.34193341  0.33965778     0.12300
H1643       H  0.09280842  0.29725793  0.29503388     0.12800
H1644       H  0.98213519  0.29192516  0.29625939     0.14800
loop_ 
_geom_bond_atom_site_label_1 
_geom_bond_atom_site_label_2 
_geom_bond_distance 
_geom_bond_site_symmetry_2 
_ccdc_geom_bond_type 
N1            C5   1.359       .  A
N1            C2   1.362       .  A
N1         C1637   1.438       .  S
C2            C3   1.385       .  A
C2         C1621   1.489       .  S
C3            C4   1.369       .  A
C3            H6   1.082       .  S
C4            C5   1.383       .  A
C4            H7   1.083       .  S
C5         C1597   1.483       .  S
O8          Zr44   2.454       .  S
O8           C19   1.294       .  A
O9          Zr43   2.423       .  S
O9           C20   1.289       .  A
O10         Zr16   2.426       .  S
O10          C21   1.290       .  A
O11         Zr16   2.442   1_655  S
O11          C22   1.292       .  A
O12         Zr46   2.455       .  S
O12          C22   1.296       .  A
O13         Zr45   2.440       .  S
O13          C21   1.294       .  A
O14         Zr16   2.451       .  S
O14          C20   1.294       .  A
O15         Zr16   2.450       .  S
O15          C19   1.293       .  A
Zr16         O17   2.336   1_455  S
Zr16         O18   2.343       .  S
Zr16         O26   2.343   1_455  S
Zr16         O24   2.354       .  S
O17         Zr43   2.332   1_655  S
O17         Zr46   2.329       .  S
O18         Zr44   2.336       .  S
O18         Zr45   2.341       .  S
C19        C1629   1.476       .  S
C20        C1573   1.471   1_455  S
C21        C1453   1.472       .  S
C22        C1437   1.483       .  S
H23          O24   0.966       .  S
O24         Zr43   2.347       .  S
O24         Zr45   2.353       .  S
H25          O26   0.966       .  S
O26         Zr44   2.346   1_655  S
O26         Zr46   2.343       .  S
O27         Zr43   2.423       .  S
O27          C50   1.289       .  A
O28         Zr44   2.436   1_655  S
O28          C51   1.291       .  A
O29         Zr45   2.450       .  S
O29          C52   1.295       .  A
O30         Zr46   2.435       .  S
O30          C53   1.293       .  A
O31         Zr46   2.437       .  S
O31          C54   1.293       .  A
O32         Zr45   2.441       .  S
O32          C55   1.294       .  A
O33         Zr47   2.443       .  S
O33          C56   1.292       .  A
O34         Zr47   2.432   1_655  S
O34          C57   1.291       .  A
O35         Zr45   2.457       .  S
O35          C56   1.296       .  A
O36         Zr46   2.446       .  S
O36          C57   1.295       .  A
O37         Zr43   2.424       .  S
O37          C52   1.289       .  A
O38         Zr44   2.449       .  S
O38          C55   1.294       .  A
O39         Zr44   2.425   1_655  S
O39          C54   1.290       .  A
O40         Zr43   2.448   1_655  S
O40          C53   1.292       .  A
O41         Zr47   2.463       .  S
O41          C50   1.296       .  A
O42         Zr47   2.451   1_655  S
O42          C51   1.294       .  A
Zr43         O49   2.337       .  S
Zr43         O61   2.328   1_455  S
Zr44         O48   2.348   1_455  S
Zr44         O59   2.346       .  S
Zr45         O49   2.329       .  S
Zr45         O59   2.346       .  S
Zr46         O48   2.344       .  S
Zr46         O61   2.343       .  S
Zr47         O48   2.349   1_455  S
Zr47         O49   2.337       .  S
Zr47         O61   2.345   1_455  S
Zr47         O59   2.346       .  S
C50        C1581   1.476       .  S
C51        C1557   1.469       .  S
C52        C1517   1.474       .  S
C53        C1541   1.476       .  S
C54        C1501   1.467       .  S
C55        C1485   1.480       .  S
C56        C1421   1.481       .  S
C57        C1469   1.471       .  S
H58          O59   0.966       .  S
H60          O61   0.965       .  S
N62          C66   1.362       .  A
N62          C63   1.363       .  A
N62        C1589   1.445       .  S
C63          C64   1.385       .  A
C63        C1389   1.487       .  S
C64          C65   1.371       .  A
C64          H67   1.082       .  S
C65          C66   1.380       .  A
C65          H68   1.082       .  S
C66        C1405   1.482       .  S
N69          C73   1.362       .  A
N69          C70   1.359       .  A
N69        C1565   1.441   1_655  S
C70          C71   1.379       .  A
C70        C1381   1.476       .  S
C71          C72   1.363       .  A
C71          H74   1.082       .  S
C72          C73   1.386       .  A
C72          H75   1.082       .  S
C73        C1357   1.483       .  S
N76          C80   1.358       .  A
N76          C77   1.364       .  A
N76        C1549   1.437       .  S
C77          C78   1.388       .  A
C77        C1325   1.492       .  S
C78          C79   1.365       .  A
C78          H81   1.082       .  S
C79          C80   1.378       .  A
C79          H82   1.083       .  S
C80        C1341   1.476       .  S
O83        Zr119   2.450   1_545  S
O83          C94   1.296       .  A
O84        Zr118   2.428   1_545  S
O84          C95   1.292       .  A
O85         Zr91   2.436   1_655  S
O85          C96   1.292       .  A
O86         Zr91   2.448       .  S
O86          C97   1.293       .  A
O87        Zr121   2.438   1_545  S
O87          C97   1.292       .  A
O88        Zr120   2.442   1_545  S
O88          C96   1.292       .  A
O89         Zr91   2.441       .  S
O89          C95   1.292       .  A
O90         Zr91   2.440       .  S
O90          C94   1.292       .  A
Zr91         O92   2.338       .  S
Zr91         O93   2.335   1_455  S
Zr91        O101   2.347       .  S
Zr91         O99   2.348   1_455  S
O92        Zr118   2.338   1_545  S
O92        Zr121   2.336   1_545  S
O93        Zr119   2.327   1_645  S
O93        Zr120   2.331   1_545  S
C94        C1613   1.484       .  S
C95        C1373   1.472       .  S
C96        C1301   1.468       .  S
C97        C1309   1.473       .  S
H98          O99   0.966       .  S
O99        Zr118   2.333   1_645  S
O99        Zr120   2.339   1_545  S
H100        O101   0.966       .  S
O101       Zr119   2.343   1_545  S
O101       Zr121   2.342   1_545  S
O102       Zr118   2.443   1_655  S
O102        C125   1.293       .  A
O103       Zr119   2.453   1_655  S
O103        C126   1.296       .  A
O104       Zr120   2.422       .  S
O104        C127   1.289       .  A
O105       Zr121   2.425       .  S
O105        C128   1.289       .  A
O106       Zr121   2.427       .  S
O106        C129   1.290       .  A
O107       Zr120   2.419   1_545  S
O107        C130   1.288       .  A
O108       Zr122   2.448       .  S
O108        C131   1.294       .  A
O109       Zr122   2.468   1_455  S
O109        C132   1.297       .  A
O110       Zr120   2.449       .  S
O110        C131   1.294       .  A
O111       Zr121   2.427       .  S
O111        C132   1.289       .  A
O112       Zr118   2.422   1_655  S
O112        C127   1.290       .  A
O113       Zr119   2.424   1_645  S
O113        C130   1.289       .  A
O114       Zr119   2.415       .  S
O114        C129   1.289       .  A
O115       Zr118   2.425       .  S
O115        C128   1.291       .  A
O116       Zr122   2.445       .  S
O116        C125   1.293       .  A
O117       Zr122   2.420       .  S
O117        C126   1.289       .  A
Zr118       O124   2.324   1_455  S
Zr118       O136   2.339       .  S
Zr119       O123   2.335       .  S
Zr119       O134   2.340   1_455  S
Zr120       O124   2.336       .  S
Zr120       O134   2.340       .  S
Zr121       O123   2.331       .  S
Zr121       O136   2.348       .  S
Zr122       O123   2.334   1_655  S
Zr122       O124   2.332       .  S
Zr122       O136   2.342   1_655  S
Zr122       O134   2.363       .  S
C125       C1413   1.480       .  S
C126       C1349   1.467       .  S
C127       C1197   1.467       .  S
C128       C1213   1.464       .  S
C129       C1229   1.466       .  S
C130       C1245   1.462       .  S
C131       C1277   1.478       .  S
C132       C1261   1.473       .  S
H133        O134   0.966       .  S
H135        O136   0.967       .  S
N137        C141   1.358       .  A
N137        C138   1.361       .  A
N137       C1317   1.441       .  S
C138        C139   1.385       .  A
C138       C1461   1.483       .  S
C139        C140   1.366       .  A
C139        H142   1.082       .  S
C140        C141   1.382       .  A
C140        H143   1.082       .  S
C141       C1181   1.476       .  S
N144        C148   1.362       .  A
N144        C145   1.364       .  A
N144       C1293   1.439       .  S
C145        C146   1.385       .  A
C145       C1445   1.493       .  S
C146        C147   1.368       .  A
C146        H149   1.082       .  S
C147        C148   1.383       .  A
C147        H150   1.082       .  S
C148       C1173   1.488       .  S
N151        C155   1.364       .  A
N151        C152   1.364       .  A
N151       C1285   1.446       .  S
C152        C153   1.384       .  A
C152       C1157   1.485       .  S
C153        C154   1.364       .  A
C153        H156   1.082       .  S
C154        C155   1.382       .  A
C154        H157   1.082       .  S
C155       C1477   1.487       .  S
N158        C162   1.357       .  A
N158        C159   1.359       .  A
N158       C1269   1.437       .  S
C159        C160   1.383       .  A
C159       C1429   1.482       .  S
C160        C161   1.372       .  A
C160        H163   1.082       .  S
C161        C162   1.382       .  A
C161        H164   1.083       .  S
C162       C1133   1.479       .  S
N165        C169   1.360       .  A
N165        C166   1.360       .  A
N165       C1117   1.438       .  S
C166        C167   1.381       .  A
C166       C1253   1.482       .  S
C167        C168   1.368       .  A
C167        H170   1.082       .  S
C168        C169   1.386       .  A
C168        H171   1.082       .  S
C169       C1101   1.486       .  S
O172       Zr208   2.443       .  S
O172        C183   1.294       .  A
O173       Zr207   2.464       .  S
O173        C184   1.298       .  A
O174       Zr180   2.459       .  S
O174        C185   1.295       .  A
O175       Zr180   2.449       .  S
O175        C186   1.294       .  A
O176       Zr210   2.434       .  S
O176        C186   1.291       .  A
O177       Zr209   2.437       .  S
O177        C185   1.292       .  A
O178       Zr180   2.421       .  S
O178        C184   1.289       .  A
O179       Zr180   2.429   1_545  S
O179        C183   1.289       .  A
Zr180       O181   2.345       .  S
Zr180       O182   2.339   1_565  S
Zr180       O190   2.348   1_565  S
Zr180       O188   2.332       .  S
O181       Zr207   2.333       .  S
O181       Zr210   2.341       .  S
O182       Zr208   2.332       .  S
O182       Zr209   2.342   1_545  S
C183       C1189   1.473       .  S
C184       C1141   1.477       .  S
C185       C1061   1.478       .  S
C186       C1093   1.470       .  S
H187        O188   0.965       .  S
O188       Zr207   2.340       .  S
O188       Zr209   2.337       .  S
H189        O190   0.966       .  S
O190       Zr208   2.335       .  S
O190       Zr210   2.350   1_545  S
O191       Zr207   2.455       .  S
O191        C214   1.297       .  A
O192       Zr208   2.420       .  S
O192        C215   1.291       .  A
O193       Zr209   2.429       .  S
O193        C216   1.290       .  A
O194       Zr210   2.442       .  S
O194        C217   1.291       .  A
O195       Zr210   2.434   1_545  S
O195        C218   1.291       .  A
O196       Zr209   2.446   1_545  S
O196        C219   1.293       .  A
O197       Zr211   2.454       .  S
O197        C220   1.294       .  A
O198       Zr211   2.459       .  S
O198        C221   1.296       .  A
O199       Zr209   2.431       .  S
O199        C220   1.290       .  A
O200       Zr210   2.441       .  S
O200        C221   1.292       .  A
O201       Zr207   2.435       .  S
O201        C216   1.293       .  A
O202       Zr208   2.438       .  S
O202        C219   1.293       .  A
O203       Zr208   2.435       .  S
O203        C218   1.293       .  A
O204       Zr207   2.444       .  S
O204        C217   1.294       .  A
O205       Zr211   2.435       .  S
O205        C214   1.292       .  A
O206       Zr211   2.456   1_545  S
O206        C215   1.295       .  A
Zr207       O213   2.345       .  S
Zr207       O225   2.346       .  S
Zr208       O212   2.342       .  S
Zr208       O223   2.343       .  S
Zr209       O213   2.346       .  S
Zr209       O223   2.333   1_565  S
Zr210       O212   2.339   1_565  S
Zr210       O225   2.339       .  S
Zr211       O212   2.340   1_565  S
Zr211       O213   2.349       .  S
Zr211       O225   2.354       .  S
Zr211       O223   2.349   1_565  S
C214       C1149   1.482       .  S
C215       C1165   1.479       .  S
C216       C1013   1.467       .  S
C217       C1037   1.477       .  S
C218       C1029   1.480       .  S
C219        C989   1.483       .  S
C220       C1125   1.470       .  S
C221       C1069   1.482       .  S
H222        O223   0.966       .  S
H224        O225   0.965       .  S
N226        C230   1.356       .  A
N226        C227   1.357       .  A
N226       C1085   1.439       .  S
C227        C228   1.383       .  A
C227        C973   1.473       .  S
C228        C229   1.364       .  A
C228        H231   1.082       .  S
C229        C230   1.384       .  A
C229        H232   1.082       .  S
C230       C1221   1.474       .  S
N233        C237   1.362       .  A
N233        C234   1.361       .  A
N233       C1077   1.447       .  S
C234        C235   1.382       .  A
C234       C1205   1.476       .  S
C235        C236   1.358       .  A
C235        H238   1.082       .  S
C236        C237   1.384       .  A
C236        H239   1.082   1_565  S
C237        C957   1.477       .  S
N240        C244   1.359       .  A
N240        C241   1.357       .  A
N240       C1053   1.446       .  S
C241        C242   1.383       .  A
C241        C941   1.471       .  S
C242        C243   1.362       .  A
C242        H245   1.082   1_565  S
C243        C244   1.383       .  A
C243        H246   1.082       .  S
C244       C1237   1.473       .  S
O247       Zr283   2.455   1_554  S
O247        C258   1.296       .  A
O248       Zr282   2.424   1_554  S
O248        C259   1.291       .  A
O249       Zr255   2.444   1_545  S
O249        C260   1.293       .  A
O250       Zr255   2.457       .  S
O250        C261   1.296       .  A
O251       Zr285   2.422   1_554  S
O251        C261   1.289       .  A
O252       Zr284   2.436   1_554  S
O252        C260   1.291       .  A
O253       Zr255   2.413       .  S
O253        C259   1.287       .  A
O254       Zr255   2.428       .  S
O254        C258   1.289       .  A
Zr255       O256   2.337       .  S
Zr255       O257   2.333   1_565  S
Zr255       O265   2.339       .  S
Zr255       O263   2.346   1_565  S
O256       Zr282   2.334   1_554  S
O256       Zr285   2.338   1_554  S
O257       Zr283   2.322   1_544  S
O257       Zr284   2.338   1_554  S
C258       C1109   1.480       .  S
C259        C949   1.453       .  S
C260        C933   1.468       .  S
C261        C909   1.475       .  S
H262        O263   0.967       .  S
O263       Zr282   2.339   1_544  S
O263       Zr284   2.336   1_554  S
H264        O265   0.966       .  S
O265       Zr283   2.334   1_554  S
O265       Zr285   2.340   1_554  S
O266       Zr282   2.421       .  S
O266        C289   1.290       .  A
O267       Zr283   2.434       .  S
O267        C290   1.293       .  A
O268       Zr284   2.434       .  S
O268        C291   1.290       .  A
O269       Zr285   2.443       .  S
O269        C292   1.292       .  A
O270       Zr285   2.425       .  S
O270        C293   1.289       .  A
O271       Zr284   2.437       .  S
O271        C294   1.291   1_556  A
O272       Zr286   2.463   1_545  S
O272        C295   1.296       .  A
O273       Zr286   2.465       .  S
O273        C296   1.297       .  A
O274       Zr284   2.435       .  S
O274        C295   1.291       .  A
O275       Zr285   2.431       .  S
O275        C296   1.291       .  A
O276       Zr282   2.450   1_545  S
O276        C291   1.295       .  A
O277       Zr283   2.422   1_544  S
O277        C294   1.290       .  A
O278       Zr283   2.427       .  S
O278        C293   1.291       .  A
O279       Zr282   2.452       .  S
O279        C292   1.296       .  A
O280       Zr286   2.436       .  S
O280        C289   1.292       .  A
O281       Zr286   2.429       .  S
O281        C290   1.290       .  A
Zr282       O288   2.336   1_565  S
Zr282       O300   2.341       .  S
Zr283       O287   2.341       .  S
Zr283       O298   2.347   1_565  S
Zr284       O288   2.342       .  S
Zr284       O298   2.339       .  S
Zr285       O287   2.339       .  S
Zr285       O300   2.335       .  S
Zr286       O287   2.345       .  S
Zr286       O288   2.346   1_565  S
Zr286       O300   2.347       .  S
Zr286       O298   2.351   1_565  S
C289        C981   1.467       .  S
C290        C965   1.466       .  S
C291        C861   1.479       .  S
C292        C829   1.484   1_556  S
C293        C845   1.465       .  S
C294        C821   1.471       .  S
C295        C877   1.478       .  S
C296        C893   1.477       .  S
H297        O298   0.966       .  S
H299        O300   0.966       .  S
N301        C305   1.358       .  A
N301        C302   1.359       .  A
N301        C925   1.438       .  S
C302        C303   1.383       .  A
C302        C997   1.480       .  S
C303        C304   1.370       .  A
C303        H306   1.082       .  S
C304        C305   1.382       .  A
C304        H307   1.082       .  S
C305        C797   1.477       .  S
N308        C312   1.360       .  A
N308        C309   1.361       .  A
N308        C917   1.445       .  S
C309        C310   1.384       .  A
C309        C781   1.481       .  S
C310        C311   1.367       .  A
C310        H313   1.082       .  S
C311        C312   1.382       .  A
C311        H314   1.082       .  S
C312       C1005   1.482       .  S
N315        C319   1.362       .  A
N315        C316   1.366       .  A
N315        C901   1.442       .  S
C316        C317   1.387       .  A
C316        C773   1.495       .  S
C317        C318   1.369       .  A
C317        H320   1.082       .  S
C318        C319   1.380       .  A
C318        H321   1.082       .  S
C319       C1045   1.487       .  S
N322        C326   1.363       .  A
N322        C323   1.365       .  A
N322        C885   1.442       .  S
C323        C324   1.384       .  A
C323       C1021   1.489       .  S
C324        C325   1.361       .  A
C324        H327   1.082       .  S
C325        C326   1.384       .  A
C325        H328   1.082       .  S
C326        C757   1.486       .  S
O329       Zr365   2.455   1_554  S
O329        C340   1.297       .  A
O330       Zr364   2.436   1_654  S
O330        C341   1.293       .  A
O331       Zr337   2.447   1_455  S
O331        C342   1.294       .  A
O332       Zr337   2.456       .  S
O332        C343   1.295       .  A
O333       Zr367   2.435   1_554  S
O333        C343   1.292       .  A
O334       Zr366   2.447   1_554  S
O334        C342   1.293       .  A
O335       Zr337   2.434       .  S
O335        C341   1.291       .  A
O336       Zr337   2.433       .  S
O336        C340   1.291       .  A
Zr337       O338   2.346       .  S
Zr337       O339   2.348   1_655  S
Zr337       O347   2.342       .  S
Zr337       O345   2.340   1_655  S
O338       Zr364   2.339   1_654  S
O338       Zr367   2.342   1_554  S
O339       Zr365   2.339   1_454  S
O339       Zr366   2.348   1_554  S
C340       C1605   1.480       .  S
C341       C1333   1.476       .  S
C342        C717   1.472       .  S
C343        C733   1.477       .  S
H344        O345   0.965       .  S
O345       Zr364   2.333   1_554  S
O345       Zr366   2.353   1_554  S
H346        O347   0.965       .  S
O347       Zr365   2.341   1_554  S
O347       Zr367   2.348   1_554  S
O348       Zr364   2.428       .  S
O348        C371   1.291       .  A
O349       Zr365   2.447       .  S
O349        C372   1.295       .  A
O350       Zr366   2.429       .  S
O350        C373   1.291       .  A
O351       Zr367   2.431       .  S
O351        C374   1.291       .  A
O352       Zr367   2.430       .  S
O352        C375   1.289       .  A
O353       Zr366   2.444   1_554  S
O353        C376   1.293       .  A
O354       Zr368   2.422       .  S
O354        C377   1.288       .  A
O355       Zr368   2.426   1_655  S
O355        C378   1.290       .  A
O356       Zr366   2.471       .  S
O356        C377   1.297       .  A
O357       Zr367   2.454       .  S
O357        C378   1.295       .  A
O358       Zr364   2.436       .  S
O358        C373   1.292       .  A
O359       Zr365   2.446   1_454  S
O359        C376   1.295       .  A
O360       Zr365   2.445       .  S
O360        C375   1.295       .  A
O361       Zr364   2.435   1_655  S
O361        C374   1.292       .  A
O362       Zr368   2.451       .  S
O362        C371   1.293       .  A
O363       Zr368   2.423       .  S
O363        C372   1.289   1_455  A
Zr364       O370   2.334       .  S
Zr364       O382   2.337   1_455  S
Zr365       O369   2.338       .  S
Zr365       O380   2.353   1_655  S
Zr366       O370   2.335       .  S
Zr366       O380   2.342       .  S
Zr367       O369   2.336       .  S
Zr367       O382   2.343       .  S
Zr368       O369   2.338   1_455  S
Zr368       O370   2.325       .  S
Zr368       O382   2.334   1_455  S
Zr368       O380   2.348       .  S
C371       C1397   1.474       .  S
C372       C1365   1.472       .  S
C373        C653   1.464       .  S
C374        C621   1.472       .  S
C375        C637   1.468       .  S
C376        C677   1.482       .  S
C377        C701   1.478       .  S
C378        C685   1.476       .  S
H379        O380   0.966       .  S
H381        O382   0.965       .  S
N383        C387   1.361       .  A
N383        C384   1.359       .  A
N383        C741   1.446       .  S
C384        C385   1.381       .  A
C384       C1509   1.474       .  S
C385        C386   1.365       .  A
C385        H388   1.082       .  S
C386        C387   1.384       .  A
C386        H389   1.082       .  S
C387        C605   1.478       .  S
N390        C394   1.360       .  A
N390        C391   1.357       .  A
N390        C725   1.440       .  S
C391        C392   1.382       .  A
C391        C589   1.477       .  S
C392        C393   1.371       .  A
C392        H395   1.082       .  S
C393        C394   1.383       .  A
C393        H396   1.082       .  S
C394       C1493   1.482       .  S
N397        C401   1.364       .  A
N397        C398   1.359       .  A
N397        C709   1.443       .  S
C398        C399   1.380       .  A
C398        C581   1.477       .  S
C399        C400   1.364       .  A
C399        H402   1.083       .  S
C400        C401   1.388       .  A
C400        H403   1.082       .  S
C401       C1525   1.488       .  S
N404        C408   1.361       .  A
N404        C405   1.360       .  A
N404        C693   1.444       .  S
C405        C406   1.383       .  A
C405       C1533   1.480       .  S
C406        C407   1.367       .  A
C406        H409   1.082       .  S
C407        C408   1.381       .  A
C407        H410   1.082       .  S
C408        C557   1.479       .  S
N411        C415   1.368       .  A
N411        C412   1.368       .  A
N411        C541   1.448       .  S
C412        C413   1.382       .  A
C412        C669   1.491       .  S
C413        C414   1.362       .  A
C413        H416   1.082       .  S
C414        C415   1.383       .  A
C414        H417   1.082       .  S
C415        C869   1.489       .  S
O418       Zr454   2.435       .  S
O418        C429   1.293       .  A
O419       Zr453   2.437       .  S
O419        C430   1.294       .  A
O420       Zr426   2.446       .  S
O420        C431   1.294       .  A
O421       Zr426   2.434   1_556  S
O421        C432   1.291       .  A
O422       Zr456   2.461       .  S
O422        C432   1.296       .  A
O423       Zr455   2.446       .  S
O423        C431   1.294       .  A
O424       Zr426   2.434   1_556  S
O424        C430   1.291       .  A
O425       Zr426   2.438       .  S
O425        C429   1.292       .  A
Zr426       O427   2.347   1_554  S
Zr426       O428   2.343       .  S
Zr426       O436   2.343       .  S
Zr426       O434   2.341   1_554  S
O427       Zr453   2.339       .  S
O427       Zr456   2.335       .  S
O428       Zr454   2.339       .  S
O428       Zr455   2.344       .  S
C429        C805   1.479       .  S
C430        C749   1.474       .  S
C431        C549   1.480       .  S
C432        C493   1.484       .  S
H433        O434   0.966       .  S
O434       Zr453   2.336       .  S
O434       Zr455   2.331   1_556  S
H435        O436   0.968       .  S
O436       Zr454   2.344       .  S
O436       Zr456   2.340   1_554  S
O437       Zr453   2.449       .  S
O437        C460   1.295       .  A
O438       Zr454   2.440       .  S
O438        C461   1.294       .  A
O439       Zr455   2.439   1_556  S
O439        C462   1.292       .  A
O440       Zr456   2.437       .  S
O440        C463   1.291       .  A
O441       Zr456   2.434   1_554  S
O441        C464   1.291       .  A
O442       Zr455   2.424       .  S
O442        C465   1.290       .  A
O443       Zr457   2.460       .  S
O443        C466   1.296   1_556  A
O444       Zr457   2.453       .  S
O444        C467   1.295       .  A
O445       Zr455   2.432       .  S
O445        C466   1.292       .  A
O446       Zr456   2.443       .  S
O446        C467   1.294       .  A
O447       Zr453   2.420       .  S
O447        C462   1.290       .  A
O448       Zr454   2.440       .  S
O448        C465   1.293       .  A
O449       Zr454   2.428       .  S
O449        C464   1.291       .  A
O450       Zr453   2.425       .  S
O450        C463   1.290       .  A
O451       Zr457   2.448       .  S
O451        C460   1.293       .  A
O452       Zr457   2.440   1_554  S
O452        C461   1.292       .  A
Zr453       O459   2.340       .  S
Zr453       O471   2.328       .  S
Zr454       O458   2.332       .  S
Zr454       O469   2.335       .  S
Zr455       O459   2.345   1_554  S
Zr455       O469   2.343       .  S
Zr456       O458   2.345   1_556  S
Zr456       O471   2.344       .  S
Zr457       O458   2.345   1_556  S
Zr457       O459   2.346       .  S
Zr457       O471   2.345       .  S
Zr457       O469   2.342   1_556  S
C460        C765   1.487       .  S
C461        C789   1.479       .  S
C462        C573   1.470       .  S
C463        C565   1.466       .  S
C464        C613   1.465       .  S
C465        C597   1.472       .  S
C466        C509   1.480       .  S
C467        C525   1.477       .  S
H468        O469   0.966       .  S
H470        O471   0.966       .  S
N472        C476   1.365       .  A
N472        C473   1.358       .  A
N472        C533   1.445       .  S
C473        C474   1.378       .  A
C473        C853   1.468       .  S
C474        C475   1.362       .  A
C474        H477   1.083       .  S
C475        C476   1.388       .  A
C475        H478   1.081       .  S
C476        C629   1.491       .  S
N479        C483   1.362       .  A
N479        C480   1.362       .  A
N479        C517   1.448       .  S
C480        C481   1.383       .  A
C480        C837   1.482       .  S
C481        C482   1.370       .  A
C481        H484   1.082       .  S
C482        C483   1.380       .  A
C482        H485   1.082       .  S
C483        C661   1.472       .  S
N486        C490   1.363   1_554  A
N486        C487   1.360       .  A
N486        C501   1.447       .  S
C487        C488   1.382   1_554  A
C487        C645   1.476       .  S
C488        C489   1.365       .  A
C488        H491   1.083       .  S
C489        C490   1.383       .  A
C489        H492   1.082       .  S
C490        C813   1.479       .  S
C493        C494   1.405       .  A
C493        C498   1.409   1_556  A
C494        C495   1.400       .  A
C494        H503   1.083       .  S
C495        C496   1.403       .  A
C495        H504   1.084       .  S
C496        C502   1.405       .  A
C496        C497   1.413   1_556  A
C497        C499   1.403       .  A
C497        C498   1.406       .  A
C498        H505   1.084       .  S
C499        C500   1.398       .  A
C499        H506   1.084       .  S
C500        C501   1.406       .  A
C500        H507   1.082       .  S
C501        C502   1.408   1_554  A
C502        H508   1.083       .  S
C509        C510   1.405       .  A
C509        C514   1.407   1_554  A
C510        C511   1.395       .  A
C510        H519   1.081       .  S
C511        C512   1.400       .  A
C511        H520   1.084       .  S
C512        C518   1.402       .  A
C512        C513   1.414   1_554  A
C513        C515   1.403       .  A
C513        C514   1.410       .  A
C514        H521   1.084       .  S
C515        C516   1.401       .  A
C515        H522   1.083       .  S
C516        C517   1.407   1_556  A
C516        H523   1.082       .  S
C517        C518   1.405       .  A
C518        H524   1.078       .  S
C525        C526   1.405   1_556  A
C525        C530   1.404       .  A
C526        C527   1.403       .  A
C526        H535   1.083       .  S
C527        C528   1.406   1_554  A
C527        H536   1.084       .  S
C528        C534   1.410       .  A
C528        C529   1.414       .  A
C529        C531   1.401       .  A
C529        C530   1.404       .  A
C530        H537   1.085       .  S
C531        C532   1.396       .  A
C531        H538   1.084       .  S
C532        C533   1.404       .  A
C532        H539   1.083       .  S
C533        C534   1.410       .  A
C534        H540   1.083   1_556  S
C541        C542   1.406       .  A
C541        C546   1.408   1_554  A
C542        C543   1.398       .  A
C542        H551   1.082       .  S
C543        C544   1.401       .  A
C543        H552   1.084       .  S
C544        C550   1.406       .  A
C544        C545   1.414   1_554  A
C545        C547   1.403       .  A
C545        C546   1.408       .  A
C546        H553   1.083       .  S
C547        C548   1.400       .  A
C547        H554   1.084       .  S
C548        C549   1.405   1_556  A
C548        H555   1.083       .  S
C549        C550   1.405       .  A
C550        H556   1.084       .  S
C557        C558   1.405       .  A
C557        C562   1.403       .  A
C558        C559   1.399       .  A
C558        H567   1.082       .  S
C559        C560   1.403       .  A
C559        H568   1.084       .  S
C560        C566   1.403       .  A
C560        C561   1.414       .  A
C561        C563   1.400       .  A
C561        C562   1.397       .  A
C562        H569   1.085       .  S
C563        C564   1.392       .  A
C563        H570   1.084       .  S
C564        C565   1.403       .  A
C564        H571   1.082       .  S
C565        C566   1.403       .  A
C566        H572   1.084       .  S
C573        C574   1.404       .  A
C573        C578   1.406       .  A
C574        C575   1.389       .  A
C574        H583   1.082       .  S
C575        C576   1.398       .  A
C575        H584   1.084       .  S
C576        C582   1.393       .  A
C576        C577   1.414       .  A
C577        C579   1.405       .  A
C577        C578   1.404       .  A
C578        H585   1.084       .  S
C579        C580   1.401       .  A
C579        H586   1.083       .  S
C580        C581   1.405       .  A
C580        H587   1.082       .  S
C581        C582   1.400       .  A
C582        H588   1.085       .  S
C589        C590   1.403       .  A
C589        C594   1.404       .  A
C590        C591   1.400       .  A
C590        H599   1.083       .  S
C591        C592   1.405       .  A
C591        H600   1.084       .  S
C592        C598   1.401       .  A
C592        C593   1.412       .  A
C593        C595   1.402       .  A
C593        C594   1.398       .  A
C594        H601   1.085       .  S
C595        C596   1.395       .  A
C595        H602   1.084       .  S
C596        C597   1.403       .  A
C596        H603   1.083       .  S
C597        C598   1.407       .  A
C598        H604   1.082       .  S
C605        C606   1.404       .  A
C605        C610   1.403       .  A
C606        C607   1.400       .  A
C606        H615   1.082       .  S
C607        C608   1.404       .  A
C607        H616   1.083       .  S
C608        C614   1.403       .  A
C608        C609   1.414       .  A
C609        C611   1.400       .  A
C609        C610   1.395       .  A
C610        H617   1.085       .  S
C611        C612   1.391       .  A
C611        H618   1.084       .  S
C612        C613   1.402       .  A
C612        H619   1.082       .  S
C613        C614   1.404       .  A
C614        H620   1.084       .  S
C621        C622   1.404       .  A
C621        C626   1.407       .  A
C622        C623   1.391       .  A
C622        H631   1.083       .  S
C623        C624   1.400       .  A
C623        H632   1.084       .  S
C624        C630   1.395       .  A
C624        C625   1.411       .  A
C625        C627   1.403       .  A
C625        C626   1.404       .  A
C626        H633   1.084   1_556  S
C627        C628   1.401       .  A
C627        H634   1.084   1_556  S
C628        C629   1.408       .  A
C628        H635   1.079       .  S
C629        C630   1.407       .  A
C630        H636   1.083       .  S
C637        C638   1.399       .  A
C637        C642   1.409   1_556  A
C638        C639   1.387       .  A
C638        H647   1.080       .  S
C639        C640   1.396       .  A
C639        H648   1.084       .  S
C640        C646   1.392       .  A
C640        C641   1.415   1_556  A
C641        C643   1.408       .  A
C641        C642   1.410       .  A
C642        H649   1.084       .  S
C643        C644   1.405       .  A
C643        H650   1.083       .  S
C644        C645   1.405       .  A
C644        H651   1.083       .  S
C645        C646   1.398   1_554  A
C646        H652   1.085       .  S
C653        C654   1.401       .  A
C653        C658   1.402   1_556  A
C654        C655   1.396       .  A
C654        H663   1.081       .  S
C655        C656   1.402   1_556  A
C655        H664   1.084       .  S
C656        C662   1.401       .  A
C656        C657   1.415       .  A
C657        C659   1.402       .  A
C657        C658   1.401       .  A
C658        H665   1.085       .  S
C659        C660   1.397       .  A
C659        H666   1.084       .  S
C660        C661   1.403       .  A
C660        H667   1.083       .  S
C661        C662   1.402       .  A
C662        H668   1.085   1_554  S
C669        C670   1.407   1_554  A
C669        C674   1.406       .  A
C670        C671   1.406       .  A
C670        H679   1.082       .  S
C671        C672   1.408   1_556  A
C671        H680   1.083       .  S
C672        C678   1.411   1_554  A
C672        C673   1.412       .  A
C673        C675   1.400       .  A
C673        C674   1.399       .  A
C674        H681   1.084       .  S
C675        C676   1.393       .  A
C675        H682   1.084       .  S
C676        C677   1.404       .  A
C676        H683   1.083       .  S
C677        C678   1.412   1_554  A
C678        H684   1.084       .  S
C685        C686   1.406       .  A
C685        C690   1.404       .  A
C686        C687   1.398       .  A
C686        H695   1.084       .  S
C687        C688   1.402       .  A
C687        H696   1.084       .  S
C688        C694   1.405       .  A
C688        C689   1.415       .  A
C689        C691   1.401       .  A
C689        C690   1.404       .  A
C690        H697   1.085       .  S
C691        C692   1.397       .  A
C691        H698   1.084       .  S
C692        C693   1.406       .  A
C692        H699   1.082       .  S
C693        C694   1.405       .  A
C694        H700   1.083       .  S
C701        C702   1.406       .  A
C701        C706   1.404       .  A
C702        C703   1.398       .  A
C702        H711   1.084       .  S
C703        C704   1.401       .  A
C703        H712   1.084       .  S
C704        C710   1.409       .  A
C704        C705   1.417       .  A
C705        C707   1.402       .  A
C705        C706   1.412       .  A
C706        H713   1.084       .  S
C707        C708   1.399       .  A
C707        H714   1.083       .  S
C708        C709   1.405       .  A
C708        H715   1.083       .  S
C709        C710   1.404       .  A
C710        H716   1.084       .  S
C717        C718   1.403       .  A
C717        C722   1.407       .  A
C718        C719   1.394       .  A
C718        H727   1.084       .  S
C719        C720   1.400       .  A
C719        H728   1.084       .  S
C720        C726   1.400       .  A
C720        C721   1.415       .  A
C721        C723   1.406       .  A
C721        C722   1.409       .  A
C722        H729   1.084       .  S
C723        C724   1.403       .  A
C723        H730   1.083       .  S
C724        C725   1.405       .  A
C724        H731   1.083       .  S
C725        C726   1.399       .  A
C726        H732   1.082       .  S
C733        C734   1.404       .  A
C733        C738   1.406       .  A
C734        C735   1.397       .  A
C734        H743   1.084       .  S
C735        C736   1.401       .  A
C735        H744   1.084       .  S
C736        C742   1.406       .  A
C736        C737   1.415       .  A
C737        C739   1.402       .  A
C737        C738   1.408       .  A
C738        H745   1.084       .  S
C739        C740   1.399       .  A
C739        H746   1.083       .  S
C740        C741   1.406       .  A
C740        H747   1.082       .  S
C741        C742   1.405       .  A
C742        H748   1.084       .  S
C749        C750   1.403       .  A
C749        C754   1.411       .  A
C750        C751   1.386       .  A
C750        H759   1.082       .  S
C751        C752   1.396       .  A
C751        H760   1.084       .  S
C752        C758   1.392       .  A
C752        C753   1.412       .  A
C753        C755   1.408       .  A
C753        C754   1.411       .  A
C754        H761   1.084       .  S
C755        C756   1.407       .  A
C755        H762   1.083       .  S
C756        C757   1.407       .  A
C756        H763   1.082       .  S
C757        C758   1.403       .  A
C758        H764   1.084       .  S
C765        C766   1.405       .  A
C765        C770   1.413       .  A
C766        C767   1.393       .  A
C766        H775   1.082       .  S
C767        C768   1.400       .  A
C767        H776   1.084       .  S
C768        C774   1.401       .  A
C768        C769   1.412       .  A
C769        C771   1.409       .  A
C769        C770   1.414       .  A
C770        H777   1.084       .  S
C771        C772   1.408       .  A
C771        H778   1.083       .  S
C772        C773   1.406       .  A
C772        H779   1.082       .  S
C773        C774   1.408       .  A
C774        H780   1.084       .  S
C781        C782   1.404       .  A
C781        C786   1.404       .  A
C782        C783   1.404       .  A
C782        H791   1.083       .  S
C783        C784   1.407       .  A
C783        H792   1.083       .  S
C784        C790   1.409       .  A
C784        C785   1.413       .  A
C785        C787   1.399       .  A
C785        C786   1.397       .  A
C786        H793   1.085       .  S
C787        C788   1.392       .  A
C787        H794   1.084       .  S
C788        C789   1.405       .  A
C788        H795   1.082       .  S
C789        C790   1.410       .  A
C790        H796   1.084       .  S
C797        C798   1.402       .  A
C797        C802   1.405       .  A
C798        C799   1.401       .  A
C798        H807   1.082       .  S
C799        C800   1.406       .  A
C799        H808   1.083       .  S
C800        C806   1.405       .  A
C800        C801   1.412       .  A
C801        C803   1.401       .  A
C801        C802   1.398       .  A
C802        H809   1.085       .  S
C803        C804   1.394       .  A
C803        H810   1.084       .  S
C804        C805   1.406       .  A
C804        H811   1.083       .  S
C805        C806   1.409       .  A
C806        H812   1.084       .  S
C813        C814   1.405       .  A
C813        C818   1.402   1_556  A
C814        C815   1.401       .  A
C814        H823   1.082       .  S
C815        C816   1.404       .  A
C815        H824   1.083       .  S
C816        C822   1.405       .  A
C816        C817   1.414   1_556  A
C817        C819   1.398       .  A
C817        C818   1.395       .  A
C818        H825   1.085       .  S
C819        C820   1.390       .  A
C819        H826   1.084       .  S
C820        C821   1.404       .  A
C820        H827   1.084       .  S
C821        C822   1.406   1_554  A
C822        H828   1.084       .  S
C829        C830   1.404   1_554  A
C829        C834   1.413       .  A
C830        C831   1.393       .  A
C830        H839   1.083       .  S
C831        C832   1.399   1_556  A
C831        H840   1.084       .  S
C832        C838   1.400       .  A
C832        C833   1.414       .  A
C833        C835   1.409       .  A
C833        C834   1.413       .  A
C834        H841   1.084       .  S
C835        C836   1.406       .  A
C835        H842   1.083       .  S
C836        C837   1.404       .  A
C836        H843   1.083       .  S
C837        C838   1.402       .  A
C838        H844   1.085   1_554  S
C845        C846   1.402   1_556  A
C845        C850   1.406       .  A
C846        C847   1.391       .  A
C846        H855   1.084       .  S
C847        C848   1.400   1_554  A
C847        H856   1.084       .  S
C848        C854   1.391       .  A
C848        C849   1.413       .  A
C849        C851   1.406       .  A
C849        C850   1.401       .  A
C850        H857   1.084       .  S
C851        C852   1.400       .  A
C851        H858   1.084       .  S
C852        C853   1.401       .  A
C852        H859   1.083       .  S
C853        C854   1.401       .  A
C854        H860   1.085       .  S
C861        C862   1.402       .  A
C861        C866   1.413   1_556  A
C862        C863   1.392       .  A
C862        H871   1.083       .  S
C863        C864   1.400       .  A
C863        H872   1.084       .  S
C864        C870   1.397       .  A
C864        C865   1.412   1_556  A
C865        C867   1.410       .  A
C865        C866   1.412       .  A
C866        H873   1.084       .  S
C867        C868   1.408       .  A
C867        H874   1.083       .  S
C868        C869   1.406       .  A
C868        H875   1.083       .  S
C869        C870   1.406   1_554  A
C870        H876   1.085       .  S
C877        C878   1.404       .  A
C877        C882   1.406       .  A
C878        C879   1.397       .  A
C878        H887   1.084       .  S
C879        C880   1.401       .  A
C879        H888   1.084       .  S
C880        C886   1.407       .  A
C880        C881   1.416       .  A
C881        C883   1.404       .  A
C881        C882   1.411       .  A
C882        H889   1.084       .  S
C883        C884   1.400       .  A
C883        H890   1.083       .  S
C884        C885   1.404       .  A
C884        H891   1.083       .  S
C885        C886   1.404       .  A
C886        H892   1.084       .  S
C893        C894   1.405       .  A
C893        C898   1.404       .  A
C894        C895   1.399       .  A
C894        H903   1.083       .  S
C895        C896   1.402       .  A
C895        H904   1.084       .  S
C896        C902   1.408       .  A
C896        C897   1.417       .  A
C897        C899   1.401       .  A
C897        C898   1.408       .  A
C898        H905   1.084       .  S
C899        C900   1.397       .  A
C899        H906   1.084       .  S
C900        C901   1.406       .  A
C900        H907   1.083       .  S
C901        C902   1.403       .  A
C902        H908   1.084       .  S
C909        C910   1.406       .  A
C909        C914   1.403       .  A
C910        C911   1.397       .  A
C910        H919   1.083       .  S
C911        C912   1.401       .  A
C911        H920   1.084       .  S
C912        C918   1.406       .  A
C912        C913   1.416       .  A
C913        C915   1.400       .  A
C913        C914   1.405       .  A
C914        H921   1.085       .  S
C915        C916   1.396       .  A
C915        H922   1.084       .  S
C916        C917   1.407       .  A
C916        H923   1.083       .  S
C917        C918   1.404       .  A
C918        H924   1.083       .  S
C925        C926   1.403       .  A
C925        C930   1.399       .  A
C926        C927   1.405       .  A
C926        H935   1.083       .  S
C927        C928   1.407       .  A
C927        H936   1.083       .  S
C928        C934   1.411       .  A
C928        C929   1.416       .  A
C929        C931   1.399       .  A
C929        C930   1.400       .  A
C930        H937   1.084       .  S
C931        C932   1.392       .  A
C931        H938   1.084       .  S
C932        C933   1.401       .  A
C932        H939   1.084       .  S
C933        C934   1.407       .  A
C934        H940   1.084       .  S
C941        C942   1.404       .  A
C941        C946   1.400   1_565  A
C942        C943   1.398       .  A
C942        H951   1.082       .  S
C943        C944   1.403       .  A
C943        H952   1.084       .  S
C944        C950   1.398       .  A
C944        C945   1.414   1_565  A
C945        C947   1.399       .  A
C945        C946   1.389       .  A
C946        H953   1.085       .  S
C947        C948   1.388       .  A
C947        H954   1.084       .  S
C948        C949   1.400   1_545  A
C948        H955   1.084       .  S
C949        C950   1.402       .  A
C950        H956   1.085       .  S
C957        C958   1.404       .  A
C957        C962   1.403   1_565  A
C958        C959   1.402       .  A
C958        H967   1.082       .  S
C959        C960   1.406       .  A
C959        H968   1.083       .  S
C960        C966   1.403       .  A
C960        C961   1.412   1_565  A
C961        C963   1.399       .  A
C961        C962   1.391       .  A
C962        H969   1.085       .  S
C963        C964   1.390       .  A
C963        H970   1.084       .  S
C964        C965   1.402   1_545  A
C964        H971   1.084       .  S
C965        C966   1.407       .  A
C966        H972   1.084       .  S
C973        C974   1.405   1_565  A
C973        C978   1.399       .  A
C974        C975   1.401       .  A
C974        H983   1.082       .  S
C975        C976   1.405   1_545  A
C975        H984   1.083       .  S
C976        C982   1.404       .  A
C976        C977   1.414       .  A
C977        C979   1.396       .  A
C977        C978   1.391       .  A
C978        H985   1.085       .  S
C979        C980   1.387       .  A
C979        H986   1.084       .  S
C980        C981   1.404       .  A
C980        H987   1.084       .  S
C981        C982   1.406       .  A
C982        H988   1.084   1_565  S
C989        C990   1.406       .  A
C989        C994   1.410       .  A
C990        C991   1.394       .  A
C990        H999   1.083       .  S
C991        C992   1.400       .  A
C991       H1000   1.084       .  S
C992        C998   1.398       .  A
C992        C993   1.412       .  A
C993        C995   1.406       .  A
C993        C994   1.408       .  A
C994       H1001   1.084       .  S
C995        C996   1.403       .  A
C995       H1002   1.084       .  S
C996        C997   1.404       .  A
C996       H1003   1.080       .  S
C997        C998   1.403       .  A
C998       H1004   1.085       .  S
C1005      C1006   1.407       .  A
C1005      C1010   1.401       .  A
C1006      C1007   1.400       .  A
C1006      H1015   1.082       .  S
C1007      C1008   1.403       .  A
C1007      H1016   1.083       .  S
C1008      C1014   1.406       .  A
C1008      C1009   1.415       .  A
C1009      C1011   1.398       .  A
C1009      C1010   1.397       .  A
C1010      H1017   1.085       .  S
C1011      C1012   1.389       .  A
C1011      H1018   1.084       .  S
C1012      C1013   1.403       .  A
C1012      H1019   1.084       .  S
C1013      C1014   1.405       .  A
C1014      H1020   1.084       .  S
C1021      C1022   1.407       .  A
C1021      C1026   1.407       .  A
C1022      C1023   1.402       .  A
C1022      H1031   1.081       .  S
C1023      C1024   1.405       .  A
C1023      H1032   1.083       .  S
C1024      C1030   1.406       .  A
C1024      C1025   1.411       .  A
C1025      C1027   1.399       .  A
C1025      C1026   1.396       .  A
C1026      H1033   1.084       .  S
C1027      C1028   1.392       .  A
C1027      H1034   1.084       .  S
C1028      C1029   1.406       .  A
C1028      H1035   1.083       .  S
C1029      C1030   1.410       .  A
C1030      H1036   1.084       .  S
C1037      C1038   1.403       .  A
C1037      C1042   1.410       .  A
C1038      C1039   1.392       .  A
C1038      H1047   1.083       .  S
C1039      C1040   1.399       .  A
C1039      H1048   1.084       .  S
C1040      C1046   1.401       .  A
C1040      C1041   1.415       .  A
C1041      C1043   1.406       .  A
C1041      C1042   1.413       .  A
C1042      H1049   1.084       .  S
C1043      C1044   1.405       .  A
C1043      H1050   1.083       .  S
C1044      C1045   1.406       .  A
C1044      H1051   1.082       .  S
C1045      C1046   1.403       .  A
C1046      H1052   1.085       .  S
C1053      C1054   1.406       .  A
C1053      C1058   1.404   1_565  A
C1054      C1055   1.402       .  A
C1054      H1063   1.083       .  S
C1055      C1056   1.405       .  A
C1055      H1064   1.084       .  S
C1056      C1062   1.411       .  A
C1056      C1057   1.415       .  A
C1057      C1059   1.401   1_565  A
C1057      C1058   1.404   1_565  A
C1058      H1065   1.084       .  S
C1059      C1060   1.396       .  A
C1059      H1066   1.084       .  S
C1060      C1061   1.403   1_545  A
C1060      H1067   1.084       .  S
C1061      C1062   1.408       .  A
C1062      H1068   1.084       .  S
C1069      C1070   1.405   1_565  A
C1069      C1074   1.407       .  A
C1070      C1071   1.399       .  A
C1070      H1079   1.084       .  S
C1071      C1072   1.402       .  A
C1071      H1080   1.084       .  S
C1072      C1078   1.409       .  A
C1072      C1073   1.416   1_545  A
C1073      C1075   1.403       .  A
C1073      C1074   1.410       .  A
C1074      H1081   1.084       .  S
C1075      C1076   1.399       .  A
C1075      H1082   1.084       .  S
C1076      C1077   1.406       .  A
C1076      H1083   1.083       .  S
C1077      C1078   1.406   1_565  A
C1078      H1084   1.084       .  S
C1085      C1086   1.404       .  A
C1085      C1090   1.402   1_565  A
C1086      C1087   1.399       .  A
C1086      H1095   1.083       .  S
C1087      C1088   1.404       .  A
C1087      H1096   1.084       .  S
C1088      C1094   1.406       .  A
C1088      C1089   1.416   1_565  A
C1089      C1091   1.402       .  A
C1089      C1090   1.402       .  A
C1090      H1097   1.084       .  S
C1091      C1092   1.396       .  A
C1091      H1098   1.083       .  S
C1092      C1093   1.402   1_545  A
C1092      H1099   1.083       .  S
C1093      C1094   1.406       .  A
C1094      H1100   1.085       .  S
C1101      C1102   1.406       .  A
C1101      C1106   1.404   1_545  A
C1102      C1103   1.406       .  A
C1102      H1111   1.082       .  S
C1103      C1104   1.408   1_545  A
C1103      H1112   1.083       .  S
C1104      C1110   1.412       .  A
C1104      C1105   1.412       .  A
C1105      C1107   1.399       .  A
C1105      C1106   1.396       .  A
C1106      H1113   1.084       .  S
C1107      C1108   1.391       .  A
C1107      H1114   1.084       .  S
C1108      C1109   1.403       .  A
C1108      H1115   1.083       .  S
C1109      C1110   1.414       .  A
C1110      H1116   1.084   1_565  S
C1117      C1118   1.403       .  A
C1117      C1122   1.404   1_545  A
C1118      C1119   1.395       .  A
C1118      H1127   1.083       .  S
C1119      C1120   1.400       .  A
C1119      H1128   1.084       .  S
C1120      C1126   1.404       .  A
C1120      C1121   1.417   1_545  A
C1121      C1123   1.403       .  A
C1121      C1122   1.408       .  A
C1122      H1129   1.084       .  S
C1123      C1124   1.400       .  A
C1123      H1130   1.084       .  S
C1124      C1125   1.404       .  A
C1124      H1131   1.083       .  S
C1125      C1126   1.401   1_565  A
C1126      H1132   1.085       .  S
C1133      C1134   1.402       .  A
C1133      C1138   1.405       .  A
C1134      C1135   1.404       .  A
C1134      H1143   1.083       .  S
C1135      C1136   1.408       .  A
C1135      H1144   1.084       .  S
C1136      C1142   1.407       .  A
C1136      C1137   1.413       .  A
C1137      C1139   1.403       .  A
C1137      C1138   1.399       .  A
C1138      H1145   1.085       .  S
C1139      C1140   1.396       .  A
C1139      H1146   1.084       .  S
C1140      C1141   1.401       .  A
C1140      H1147   1.083       .  S
C1141      C1142   1.411       .  A
C1142      H1148   1.084       .  S
C1149      C1150   1.404       .  A
C1149      C1154   1.413       .  A
C1150      C1151   1.393       .  A
C1150      H1159   1.083       .  S
C1151      C1152   1.401       .  A
C1151      H1160   1.084       .  S
C1152      C1158   1.397       .  A
C1152      C1153   1.411       .  A
C1153      C1155   1.409       .  A
C1153      C1154   1.410       .  A
C1154      H1161   1.084       .  S
C1155      C1156   1.406       .  A
C1155      H1162   1.083       .  S
C1156      C1157   1.404       .  A
C1156      H1163   1.082       .  S
C1157      C1158   1.407       .  A
C1158      H1164   1.085       .  S
C1165      C1166   1.408       .  A
C1165      C1170   1.408       .  A
C1166      C1167   1.390       .  A
C1166      H1175   1.083       .  S
C1167      C1168   1.397       .  A
C1167      H1176   1.084       .  S
C1168      C1174   1.397       .  A
C1168      C1169   1.413       .  A
C1169      C1171   1.404       .  A
C1169      C1170   1.408       .  A
C1170      H1177   1.084       .  S
C1171      C1172   1.402       .  A
C1171      H1178   1.083       .  S
C1172      C1173   1.407       .  A
C1172      H1179   1.082       .  S
C1173      C1174   1.403       .  A
C1174      H1180   1.084       .  S
C1181      C1182   1.404       .  A
C1181      C1186   1.401       .  A
C1182      C1183   1.404       .  A
C1182      H1191   1.083       .  S
C1183      C1184   1.408       .  A
C1183      H1192   1.083       .  S
C1184      C1190   1.408       .  A
C1184      C1185   1.413       .  A
C1185      C1187   1.399       .  A
C1185      C1186   1.394       .  A
C1186      H1193   1.085       .  S
C1187      C1188   1.390       .  A
C1187      H1194   1.084       .  S
C1188      C1189   1.402       .  A
C1188      H1195   1.083       .  S
C1189      C1190   1.410       .  A
C1190      H1196   1.084       .  S
C1197      C1198   1.403       .  A
C1197      C1202   1.407   1_565  A
C1198      C1199   1.386       .  A
C1198      H1207   1.082       .  S
C1199      C1200   1.396       .  A
C1199      H1208   1.084       .  S
C1200      C1206   1.389       .  A
C1200      C1201   1.413       .  A
C1201      C1203   1.405   1_565  A
C1201      C1202   1.403   1_565  A
C1202      H1209   1.084       .  S
C1203      C1204   1.401       .  A
C1203      H1210   1.083       .  S
C1204      C1205   1.405   1_545  A
C1204      H1211   1.082       .  S
C1205      C1206   1.400       .  A
C1206      H1212   1.085       .  S
C1213      C1214   1.401   1_565  A
C1213      C1218   1.407       .  A
C1214      C1215   1.385       .  A
C1214      H1223   1.082       .  S
C1215      C1216   1.396       .  A
C1215      H1224   1.084       .  S
C1216      C1222   1.388       .  A
C1216      C1217   1.414   1_545  A
C1217      C1219   1.407       .  A
C1217      C1218   1.405       .  A
C1218      H1225   1.084       .  S
C1219      C1220   1.403       .  A
C1219      H1226   1.084       .  S
C1220      C1221   1.405       .  A
C1220      H1227   1.082       .  S
C1221      C1222   1.398   1_565  A
C1222      H1228   1.085       .  S
C1229      C1230   1.405       .  A
C1229      C1234   1.403       .  A
C1230      C1231   1.390       .  A
C1230      H1239   1.083       .  S
C1231      C1232   1.399       .  A
C1231      H1240   1.084       .  S
C1232      C1238   1.392       .  A
C1232      C1233   1.413       .  A
C1233      C1235   1.402       .  A
C1233      C1234   1.398       .  A
C1234      H1241   1.084   1_565  S
C1235      C1236   1.396       .  A
C1235      H1242   1.084   1_565  S
C1236      C1237   1.404       .  A
C1236      H1243   1.081   1_565  S
C1237      C1238   1.402       .  A
C1238      H1244   1.085       .  S
C1245      C1246   1.403       .  A
C1245      C1250   1.400       .  A
C1246      C1247   1.393       .  A
C1246      H1255   1.083       .  S
C1247      C1248   1.401       .  A
C1247      H1256   1.084       .  S
C1248      C1254   1.397       .  A
C1248      C1249   1.414       .  A
C1249      C1251   1.400   1_545  A
C1249      C1250   1.398       .  A
C1250      H1257   1.085   1_545  S
C1251      C1252   1.395       .  A
C1251      H1258   1.084       .  S
C1252      C1253   1.406   1_565  A
C1252      H1259   1.080       .  S
C1253      C1254   1.405       .  A
C1254      H1260   1.084       .  S
C1261      C1262   1.402       .  A
C1261      C1266   1.405       .  A
C1262      C1263   1.400       .  A
C1262      H1271   1.083       .  S
C1263      C1264   1.403       .  A
C1263      H1272   1.083       .  S
C1264      C1270   1.408       .  A
C1264      C1265   1.417       .  A
C1265      C1267   1.404       .  A
C1265      C1266   1.408       .  A
C1266      H1273   1.085       .  S
C1267      C1268   1.399       .  A
C1267      H1274   1.084       .  S
C1268      C1269   1.402       .  A
C1268      H1275   1.083       .  S
C1269      C1270   1.401       .  A
C1270      H1276   1.084       .  S
C1277      C1278   1.404       .  A
C1277      C1282   1.405       .  A
C1278      C1279   1.401       .  A
C1278      H1287   1.083       .  S
C1279      C1280   1.404       .  A
C1279      H1288   1.083       .  S
C1280      C1286   1.411       .  A
C1280      C1281   1.416       .  A
C1281      C1283   1.401       .  A
C1281      C1282   1.407       .  A
C1282      H1289   1.085       .  S
C1283      C1284   1.396       .  A
C1283      H1290   1.084       .  S
C1284      C1285   1.406       .  A
C1284      H1291   1.083       .  S
C1285      C1286   1.407       .  A
C1286      H1292   1.083       .  S
C1293      C1294   1.405       .  A
C1293      C1298   1.402       .  A
C1294      C1295   1.397       .  A
C1294      H1303   1.083       .  S
C1295      C1296   1.402       .  A
C1295      H1304   1.084       .  S
C1296      C1302   1.405       .  A
C1296      C1297   1.416       .  A
C1297      C1299   1.401       .  A
C1297      C1298   1.402       .  A
C1298      H1305   1.084       .  S
C1299      C1300   1.396       .  A
C1299      H1306   1.084       .  S
C1300      C1301   1.403       .  A
C1300      H1307   1.084       .  S
C1301      C1302   1.403       .  A
C1302      H1308   1.085       .  S
C1309      C1310   1.403       .  A
C1309      C1314   1.404       .  A
C1310      C1311   1.398       .  A
C1310      H1319   1.084       .  S
C1311      C1312   1.403       .  A
C1311      H1320   1.084       .  S
C1312      C1318   1.406       .  A
C1312      C1313   1.416       .  A
C1313      C1315   1.402       .  A
C1313      C1314   1.406       .  A
C1314      H1321   1.085       .  S
C1315      C1316   1.397       .  A
C1315      H1322   1.084       .  S
C1316      C1317   1.404       .  A
C1316      H1323   1.083       .  S
C1317      C1318   1.405       .  A
C1318      H1324   1.084       .  S
C1325      C1326   1.407       .  A
C1325      C1330   1.409   1_455  A
C1326      C1327   1.402       .  A
C1326      H1335   1.078       .  S
C1327      C1328   1.405       .  A
C1327      H1336   1.084       .  S
C1328      C1334   1.405       .  A
C1328      C1329   1.410   1_455  A
C1329      C1331   1.401       .  A
C1329      C1330   1.396       .  A
C1330      H1337   1.083       .  S
C1331      C1332   1.393       .  A
C1331      H1338   1.084       .  S
C1332      C1333   1.404       .  A
C1332      H1339   1.083       .  S
C1333      C1334   1.409   1_655  A
C1334      H1340   1.084       .  S
C1341      C1342   1.404       .  A
C1341      C1346   1.403   1_455  A
C1342      C1343   1.402       .  A
C1342      H1351   1.080       .  S
C1343      C1344   1.406       .  A
C1343      H1352   1.084       .  S
C1344      C1350   1.404       .  A
C1344      C1345   1.413   1_455  A
C1345      C1347   1.401       .  A
C1345      C1346   1.396       .  A
C1346      H1353   1.085       .  S
C1347      C1348   1.393       .  A
C1347      H1354   1.084       .  S
C1348      C1349   1.400       .  A
C1348      H1355   1.083       .  S
C1349      C1350   1.407   1_655  A
C1350      H1356   1.085       .  S
C1357      C1358   1.406   1_655  A
C1357      C1362   1.405       .  A
C1358      C1359   1.404       .  A
C1358      H1367   1.082       .  S
C1359      C1360   1.406       .  A
C1359      H1368   1.083       .  S
C1360      C1366   1.405       .  A
C1360      C1361   1.411   1_455  A
C1361      C1363   1.400       .  A
C1361      C1362   1.393       .  A
C1362      H1369   1.084       .  S
C1363      C1364   1.391       .  A
C1363      H1370   1.084       .  S
C1364      C1365   1.401       .  A
C1364      H1371   1.080       .  S
C1365      C1366   1.409   1_655  A
C1366      H1372   1.084       .  S
C1373      C1374   1.403       .  A
C1373      C1378   1.408   1_455  A
C1374      C1375   1.388       .  A
C1374      H1383   1.082       .  S
C1375      C1376   1.397       .  A
C1375      H1384   1.084       .  S
C1376      C1382   1.393       .  A
C1376      C1377   1.414   1_455  A
C1377      C1379   1.406       .  A
C1377      C1378   1.407       .  A
C1378      H1385   1.084       .  S
C1379      C1380   1.403       .  A
C1379      H1386   1.083       .  S
C1380      C1381   1.405       .  A
C1380      H1387   1.083       .  S
C1381      C1382   1.399   1_655  A
C1382      H1388   1.085       .  S
C1389      C1390   1.405   1_455  A
C1389      C1394   1.406       .  A
C1390      C1391   1.403       .  A
C1390      H1399   1.082       .  S
C1391      C1392   1.405   1_655  A
C1391      H1400   1.083       .  S
C1392      C1398   1.411   1_455  A
C1392      C1393   1.414       .  A
C1393      C1395   1.400       .  A
C1393      C1394   1.401       .  A
C1394      H1401   1.085       .  S
C1395      C1396   1.393       .  A
C1395      H1402   1.084       .  S
C1396      C1397   1.402       .  A
C1396      H1403   1.082       .  S
C1397      C1398   1.407   1_455  A
C1398      H1404   1.084       .  S
C1405      C1406   1.403       .  A
C1405      C1410   1.406   1_455  A
C1406      C1407   1.398       .  A
C1406      H1415   1.083       .  S
C1407      C1408   1.403       .  A
C1407      H1416   1.083       .  S
C1408      C1414   1.405       .  A
C1408      C1409   1.414   1_455  A
C1409      C1411   1.403       .  A
C1409      C1410   1.404       .  A
C1410      H1417   1.085       .  S
C1411      C1412   1.399       .  A
C1411      H1418   1.084       .  S
C1412      C1413   1.406       .  A
C1412      H1419   1.081       .  S
C1413      C1414   1.405   1_655  A
C1414      H1420   1.084       .  S
C1421      C1422   1.404       .  A
C1421      C1426   1.410       .  A
C1422      C1423   1.397       .  A
C1422      H1431   1.083       .  S
C1423      C1424   1.403       .  A
C1423      H1432   1.084       .  S
C1424      C1430   1.402       .  A
C1424      C1425   1.413       .  A
C1425      C1427   1.407       .  A
C1425      C1426   1.409       .  A
C1426      H1433   1.084       .  S
C1427      C1428   1.404       .  A
C1427      H1434   1.083       .  S
C1428      C1429   1.402       .  A
C1428      H1435   1.082       .  S
C1429      C1430   1.406       .  A
C1430      H1436   1.085       .  S
C1437      C1438   1.402       .  A
C1437      C1442   1.412       .  A
C1438      C1439   1.392       .  A
C1438      H1447   1.080       .  S
C1439      C1440   1.399       .  A
C1439      H1448   1.084       .  S
C1440      C1446   1.399       .  A
C1440      C1441   1.413       .  A
C1441      C1443   1.407       .  A
C1441      C1442   1.414       .  A
C1442      H1449   1.084       .  S
C1443      C1444   1.406       .  A
C1443      H1450   1.083       .  S
C1444      C1445   1.408       .  A
C1444      H1451   1.082       .  S
C1445      C1446   1.406       .  A
C1446      H1452   1.084       .  S
C1453      C1454   1.403       .  A
C1453      C1458   1.408       .  A
C1454      C1455   1.390       .  A
C1454      H1463   1.081       .  S
C1455      C1456   1.398       .  A
C1455      H1464   1.084       .  S
C1456      C1462   1.395       .  A
C1456      C1457   1.413       .  A
C1457      C1459   1.405       .  A
C1457      C1458   1.406       .  A
C1458      H1465   1.084       .  S
C1459      C1460   1.402       .  A
C1459      H1466   1.084       .  S
C1460      C1461   1.407       .  A
C1460      H1467   1.082       .  S
C1461      C1462   1.403       .  A
C1462      H1468   1.084       .  S
C1469      C1470   1.404       .  A
C1469      C1474   1.406       .  A
C1470      C1471   1.394       .  A
C1470      H1479   1.084       .  S
C1471      C1472   1.401       .  A
C1471      H1480   1.084       .  S
C1472      C1478   1.399       .  A
C1472      C1473   1.413       .  A
C1473      C1475   1.403       .  A
C1473      C1474   1.405       .  A
C1474      H1481   1.084       .  S
C1475      C1476   1.400       .  A
C1475      H1482   1.084       .  S
C1476      C1477   1.406       .  A
C1476      H1483   1.081       .  S
C1477      C1478   1.406       .  A
C1478      H1484   1.084       .  S
C1485      C1486   1.404       .  A
C1485      C1490   1.409       .  A
C1486      C1487   1.393       .  A
C1486      H1495   1.081       .  S
C1487      C1488   1.399       .  A
C1487      H1496   1.084       .  S
C1488      C1494   1.400       .  A
C1488      C1489   1.414       .  A
C1489      C1491   1.405       .  A
C1489      C1490   1.410       .  A
C1490      H1497   1.084       .  S
C1491      C1492   1.402       .  A
C1491      H1498   1.083       .  S
C1492      C1493   1.404       .  A
C1492      H1499   1.078       .  S
C1493      C1494   1.404       .  A
C1494      H1500   1.085       .  S
C1501      C1502   1.402       .  A
C1501      C1506   1.406       .  A
C1502      C1503   1.392       .  A
C1502      H1511   1.083       .  S
C1503      C1504   1.400       .  A
C1503      H1512   1.084       .  S
C1504      C1510   1.395       .  A
C1504      C1505   1.414       .  A
C1505      C1507   1.405       .  A
C1505      C1506   1.402       .  A
C1506      H1513   1.085       .  S
C1507      C1508   1.399       .  A
C1507      H1514   1.084       .  S
C1508      C1509   1.404       .  A
C1508      H1515   1.083       .  S
C1509      C1510   1.401       .  A
C1510      H1516   1.085       .  S
C1517      C1518   1.403       .  A
C1517      C1522   1.409       .  A
C1518      C1519   1.394       .  A
C1518      H1527   1.083       .  S
C1519      C1520   1.402       .  A
C1519      H1528   1.084       .  S
C1520      C1526   1.397       .  A
C1520      C1521   1.411       .  A
C1521      C1523   1.406       .  A
C1521      C1522   1.406       .  A
C1522      H1529   1.084       .  S
C1523      C1524   1.403       .  A
C1523      H1530   1.083       .  S
C1524      C1525   1.406       .  A
C1524      H1531   1.081       .  S
C1525      C1526   1.408       .  A
C1526      H1532   1.084       .  S
C1533      C1534   1.405       .  A
C1533      C1538   1.400       .  A
C1534      C1535   1.407       .  A
C1534      H1543   1.083       .  S
C1535      C1536   1.409       .  A
C1535      H1544   1.083       .  S
C1536      C1542   1.413       .  A
C1536      C1537   1.414       .  A
C1537      C1539   1.397       .  A
C1537      C1538   1.395       .  A
C1538      H1545   1.085       .  S
C1539      C1540   1.388       .  A
C1539      H1546   1.084       .  S
C1540      C1541   1.402       .  A
C1540      H1547   1.080       .  S
C1541      C1542   1.411       .  A
C1542      H1548   1.084       .  S
C1549      C1550   1.401       .  A
C1549      C1554   1.405   1_455  A
C1550      C1551   1.394       .  A
C1550      H1559   1.083       .  S
C1551      C1552   1.400       .  A
C1551      H1560   1.084       .  S
C1552      C1558   1.403       .  A
C1552      C1553   1.417   1_455  A
C1553      C1555   1.406       .  A
C1553      C1554   1.410       .  A
C1554      H1561   1.084       .  S
C1555      C1556   1.403       .  A
C1555      H1562   1.084       .  S
C1556      C1557   1.403       .  A
C1556      H1563   1.083       .  S
C1557      C1558   1.400   1_655  A
C1558      H1564   1.085       .  S
C1565      C1566   1.406       .  A
C1565      C1570   1.402   1_455  A
C1566      C1567   1.398       .  A
C1566      H1575   1.083       .  S
C1567      C1568   1.401       .  A
C1567      H1576   1.084       .  S
C1568      C1574   1.407       .  A
C1568      C1569   1.417   1_455  A
C1569      C1571   1.400       .  A
C1569      C1570   1.405       .  A
C1570      H1577   1.084       .  S
C1571      C1572   1.395       .  A
C1571      H1578   1.084       .  S
C1572      C1573   1.404       .  A
C1572      H1579   1.084       .  S
C1573      C1574   1.403   1_655  A
C1574      H1580   1.084       .  S
C1581      C1582   1.406       .  A
C1581      C1586   1.404   1_455  A
C1582      C1583   1.396       .  A
C1582      H1591   1.084       .  S
C1583      C1584   1.401       .  A
C1583      H1592   1.084       .  S
C1584      C1590   1.406       .  A
C1584      C1585   1.416       .  A
C1585      C1587   1.402   1_455  A
C1585      C1586   1.409   1_455  A
C1586      H1593   1.084       .  S
C1587      C1588   1.398       .  A
C1587      H1594   1.083       .  S
C1588      C1589   1.406   1_655  A
C1588      H1595   1.082       .  S
C1589      C1590   1.405       .  A
C1590      H1596   1.084       .  S
C1597      C1598   1.404       .  A
C1597      C1602   1.405       .  A
C1598      C1599   1.405       .  A
C1598      H1607   1.081       .  S
C1599      C1600   1.408       .  A
C1599      H1608   1.083       .  S
C1600      C1606   1.410       .  A
C1600      C1601   1.412       .  A
C1601      C1603   1.401   1_455  A
C1601      C1602   1.398       .  A
C1602      H1609   1.085   1_455  S
C1603      C1604   1.393       .  A
C1603      H1610   1.084       .  S
C1604      C1605   1.403       .  A
C1604      H1611   1.083       .  S
C1605      C1606   1.412   1_655  A
C1606      H1612   1.084       .  S
C1613      C1614   1.405   1_455  A
C1613      C1618   1.411       .  A
C1614      C1615   1.396       .  A
C1614      H1623   1.083       .  S
C1615      C1616   1.402   1_655  A
C1615      H1624   1.084       .  S
C1616      C1622   1.400       .  A
C1616      C1617   1.411       .  A
C1617      C1619   1.407       .  A
C1617      C1618   1.408       .  A
C1618      H1625   1.084       .  S
C1619      C1620   1.404       .  A
C1619      H1626   1.083       .  S
C1620      C1621   1.404       .  A
C1620      H1627   1.080       .  S
C1621      C1622   1.409       .  A
C1622      H1628   1.084       .  S
C1629      C1630   1.403   1_455  A
C1629      C1634   1.404       .  A
C1630      C1631   1.402       .  A
C1630      H1639   1.083       .  S
C1631      C1632   1.404   1_655  A
C1631      H1640   1.084       .  S
C1632      C1638   1.409       .  A
C1632      C1633   1.417       .  A
C1633      C1635   1.403       .  A
C1633      C1634   1.407       .  A
C1634      H1641   1.085       .  S
C1635      C1636   1.398       .  A
C1635      H1642   1.084       .  S
C1636      C1637   1.403       .  A
C1636      H1643   1.083       .  S
C1637      C1638   1.402       .  A
C1638      H1644   1.084   1_455  S
