geometry optimzed in LAMMPS
_audit_creation_date              2020-11-30 
_audit_creation_method            'lammps2cif' 
_symmetry_space_group_name_H-M    'P1' 
_symmetry_Int_Tables_number       1 
_symmetry_cell_setting            triclinic 
loop_ 
_symmetry_equiv_pos_as_xyz 
  x,y,z 
_cell_length_a                    30.06717028 
_cell_length_b                    31.970472257473244 
_cell_length_c                    33.219686796369324 
_cell_angle_alpha                 90.1569591126081 
_cell_angle_beta                  90.42726158113803 
_cell_angle_gamma                 90.18112578639898 
loop_ 
_atom_site_label 
_atom_site_type_symbol 
_atom_site_fract_x 
_atom_site_fract_y 
_atom_site_fract_z 
_atom_site_charge 
N1          N  0.30198247  0.43914116  0.04231992    -0.07200
N2          N  0.33428645  0.42469749  0.06588726    -0.59300
N3          N  0.26988889  0.41332754  0.95014508    -0.06900
N4          N  0.27962544  0.38132431  0.92691224    -0.61400
N5          N  0.30316143  0.44024683  0.95141773    -0.06500
N6          N  0.33679172  0.42589937  0.92988481    -0.59300
N7          N  0.26842792  0.41248743  0.04176340    -0.06100
N8          N  0.27656923  0.38058406  0.06551363    -0.61800
C9          C  0.31734639  0.38848134  0.08077938     0.95000
C10         C  0.32096750  0.38966105  0.91387356     0.94800
N11         N  0.13478285  0.44325012  0.94713475    -0.07400
N12         N  0.11402201  0.44411127  0.91204196    -0.59900
N13         N  0.16461319  0.41344507  0.04082938    -0.05500
N14         N  0.16291112  0.39209462  0.07478184    -0.61100
N15         N  0.13323290  0.44186014  0.03995166    -0.07400
N16         N  0.10951245  0.44053728  0.07305284    -0.60100
N17         N  0.16657503  0.41518153  0.94687766    -0.05100
N18         N  0.16835788  0.39661620  0.91142832    -0.61200
Mn19       Mn  0.21685352  0.41262570  0.99494526     1.18400
C20         C  0.13505372  0.41462179  0.89019115     0.97100
C21         C  0.12804884  0.40915907  0.09440107     0.97700
N22         N  0.30257515  0.54253583  0.95222772    -0.07400
N23         N  0.33472262  0.55664009  0.92861152    -0.63700
N24         N  0.26907308  0.56831760  0.04371458    -0.06200
N25         N  0.27911532  0.60017987  0.06731098    -0.64400
N26         N  0.30195179  0.54110204  0.04326059    -0.06900
N27         N  0.33533903  0.55486900  0.06591243    -0.64000
N28         N  0.26911117  0.56909712  0.95207063    -0.05800
N29         N  0.27707170  0.60051795  0.92775969    -0.64700
Mn30       Mn  0.30386692  0.49081321  0.99729988     1.10700
C31         C  0.31768478  0.59247996  0.91294633     0.98300
C32         C  0.32004862  0.59119426  0.08157611     0.98400
N33         N  0.13320519  0.53818478  0.04160800    -0.06900
N34         N  0.10845431  0.53972574  0.07410008    -0.62300
N35         N  0.16546431  0.56803624  0.94972035    -0.06200
N36         N  0.16439027  0.59004210  0.91621273    -0.59000
N37         N  0.13390883  0.53958052  0.94921374    -0.07600
N38         N  0.11045945  0.54172019  0.91559852    -0.61900
N39         N  0.16437651  0.56701836  0.04303973    -0.06500
N40         N  0.16135095  0.58905100  0.07657961    -0.59100
Mn41       Mn  0.13210475  0.49057995  0.99447186     1.20200
Mn42       Mn  0.21666006  0.56911883  0.99726806     1.10100
Cl43       Cl  0.21794527  0.49084725  0.99609136    -0.87000
C44         C  0.12608946  0.57178675  0.09550110     0.95300
C45         C  0.12963845  0.57353659  0.89542259     0.95100
N46         N  0.87248437  0.44834208  0.04379076    -0.07200
N47         N  0.89479502  0.44949981  0.07798591    -0.59300
N48         N  0.84248426  0.41759323  0.95052747    -0.06900
N49         N  0.84202713  0.39800840  0.91553886    -0.61400
N50         N  0.87346401  0.44663926  0.95098211    -0.06500
N51         N  0.89489368  0.44722365  0.91646450    -0.59300
N52         N  0.84215446  0.41872850  0.04436922    -0.06100
N53         N  0.84345839  0.39878118  0.07911092    -0.61800
C54         C  0.87678373  0.41815338  0.09952218     0.95000
C55         C  0.87518744  0.41648280  0.89476070     0.94800
N56         N  0.70514793  0.43919251  0.94981732    -0.07400
N57         N  0.67253583  0.42347544  0.92731403    -0.59900
N58         N  0.73739361  0.41418477  0.04179526    -0.05500
N59         N  0.72712061  0.38125412  0.06362757    -0.61100
N60         N  0.70364800  0.44047691  0.04027361    -0.07400
N61         N  0.66942730  0.42479529  0.06021080    -0.60100
N62         N  0.73907190  0.41315408  0.95030247    -0.05100
N63         N  0.73079909  0.38042756  0.92735188    -0.61200
Mn64       Mn  0.79088565  0.41493627  0.99692134     1.18400
C65         C  0.68962346  0.38729335  0.91270122     0.97100
C66         C  0.68504816  0.38835844  0.07547329     0.97700
N67         N  0.87161418  0.54249906  0.95031938    -0.07400
N68         N  0.89635870  0.54355759  0.91790087    -0.63700
N69         N  0.83793690  0.57218111  0.04173466    -0.06200
N70         N  0.83738212  0.59358752  0.07573270    -0.64400
N71         N  0.87005987  0.54447291  0.04252152    -0.06900
N72         N  0.89220786  0.54655456  0.07686023    -0.64000
N73         N  0.83967806  0.57029271  0.94816319    -0.05800
N74         N  0.84212133  0.59112052  0.91395315    -0.64700
Mn75       Mn  0.87353438  0.49544017  0.99699485     1.10700
C76         C  0.87793672  0.57417393  0.89562159     0.98300
C77         C  0.87169277  0.57752353  0.09719254     0.98400
N78         N  0.70179569  0.54330051  0.03924314    -0.06900
N79         N  0.66929975  0.55681379  0.06279794    -0.62300
N80         N  0.73502328  0.56890784  0.94731591    -0.06200
N81         N  0.72424780  0.60052673  0.92393812    -0.59000
N82         N  0.70249151  0.54115566  0.94818174    -0.07600
N83         N  0.66853723  0.55443001  0.92606962    -0.61900
N84         N  0.73446245  0.57090896  0.03896929    -0.06500
N85         N  0.72565063  0.60249664  0.06294488    -0.59100
Mn86       Mn  0.70198798  0.49107179  0.99445260     1.20200
Mn87       Mn  0.78714106  0.57157716  0.99385061     1.10100
Cl88       Cl  0.78777595  0.49323205  0.99566320    -0.87000
C89         C  0.68532615  0.59348042  0.07798959     0.95300
C90         C  0.68315532  0.59099021  0.91027053     0.95100
N91         N  0.44197904  0.04210237  0.28266410    -0.07200
N92         N  0.42540049  0.06683856  0.31107790    -0.59300
N93         N  0.41368073  0.94695613  0.25413923    -0.06900
N94         N  0.37695067  0.92684426  0.26304355    -0.61400
N95         N  0.44130260  0.94766357  0.28523997    -0.06500
N96         N  0.42262092  0.92819919  0.31617714    -0.59300
N97         N  0.41467182  0.04134440  0.25139694    -0.06100
N98         N  0.38050372  0.06608636  0.25726835    -0.61800
C99         C  0.38738307  0.08217814  0.29421911     0.95000
C100        C  0.38262836  0.91496110  0.30145971     0.94800
N101        N  0.44785044  0.94109567  0.13262010    -0.07400
N102        N  0.44818627  0.90413245  0.11471030    -0.59900
N103        N  0.41803448  0.03986881  0.15843312    -0.05500
N104        N  0.39812409  0.07641765  0.16023697    -0.61100
N105        N  0.44862855  0.03996898  0.13043330    -0.07400
N106        N  0.45008940  0.07708185  0.11269261    -0.60100
N107        N  0.41718713  0.94209054  0.16051653    -0.05100
N108        N  0.39571124  0.90607481  0.16189171    -0.61200
Mn109      Mn  0.41531097  0.99238712  0.20543550     1.18400
C110        C  0.41517161  0.88273754  0.13301194     0.97100
C111        C  0.41802303  0.09939835  0.13152567     0.97700
N112        N  0.55211226  0.94708073  0.28706835    -0.07400
N113        N  0.56809341  0.92410877  0.31721642    -0.63700
N114        N  0.58105843  0.04072291  0.25464792    -0.06200
N115        N  0.61642249  0.06328302  0.26350112    -0.64400
N116        N  0.55212842  0.04192903  0.28434341    -0.06900
N117        N  0.56833546  0.06526999  0.31420775    -0.64000
N118        N  0.58028432  0.94617218  0.25681773    -0.05800
N119        N  0.61440477  0.92210249  0.26511151    -0.64700
Mn120      Mn  0.49693263  0.99466207  0.28631670     1.10700
C121        C  0.60672454  0.90811672  0.30251960     0.98300
C122        C  0.60815719  0.07901724  0.30026092     0.98400
N123        N  0.55049420  0.03889539  0.13181162    -0.06900
N124        N  0.55082763  0.07462269  0.11181445    -0.62300
N125        N  0.57942361  0.94100303  0.16395890    -0.06200
N126        N  0.59923512  0.90442549  0.16770171    -0.59000
N127        N  0.54971501  0.93974916  0.13478991    -0.07600
N128        N  0.54885626  0.90201141  0.11811610    -0.61900
N129        N  0.58066801  0.03948194  0.16057083    -0.06500
N130        N  0.60260349  0.07532621  0.16037267    -0.59100
Mn131      Mn  0.49923209  0.98988908  0.13039881     1.20200
Mn132      Mn  0.58115828  0.99195710  0.20836130     1.10100
Cl133      Cl  0.49818263  0.99222001  0.20833067    -0.87000
C134        C  0.58386627  0.09688315  0.12967561     0.95300
C135        C  0.58022456  0.88033728  0.13882221     0.95100
N136        N  0.44880001  0.03877870  0.85981532    -0.07200
N137        N  0.44789391  0.07482077  0.87946315    -0.59300
N138        N  0.41921959  0.94063610  0.82870757    -0.06900
N139        N  0.39897302  0.90414600  0.82543041    -0.61400
N140        N  0.44881715  0.93992129  0.85789019    -0.06500
N141        N  0.44927286  0.90262444  0.87513675    -0.59300
N142        N  0.41843309  0.03837521  0.83125257    -0.06100
N143        N  0.39594304  0.07371579  0.83104664    -0.61800
C144        C  0.41432368  0.09612685  0.86143594     0.95000
C145        C  0.41770842  0.88072036  0.85468802     0.94800
N146        N  0.44615629  0.94503180  0.70548591    -0.07400
N147        N  0.43068836  0.91990157  0.67655426    -0.59900
N148        N  0.41774017  0.03871005  0.73832565    -0.05500
N149        N  0.38215173  0.06112402  0.73132801    -0.61100
N150        N  0.44506810  0.03986183  0.70745260    -0.07400
N151        N  0.42691334  0.06273731  0.67820515    -0.60100
N152        N  0.41866644  0.94429356  0.73623486    -0.05100
N153        N  0.38556331  0.91831370  0.72964735    -0.61200
Mn154      Mn  0.41799591  0.99054867  0.78414763     1.18400
C155        C  0.39325495  0.90290028  0.69278091     0.97100
C156        C  0.38774701  0.07622550  0.69408864     0.97700
N157        N  0.55045853  0.94004319  0.85885746    -0.07400
N158        N  0.55014131  0.90335865  0.87718297    -0.63700
N159        N  0.58268620  0.03805930  0.83393481    -0.06200
N160        N  0.60700908  0.07239206  0.83604248    -0.64400
N161        N  0.55157575  0.03844522  0.86143973    -0.06900
N162        N  0.55359174  0.07361501  0.88247114    -0.64000
N163        N  0.58105092  0.94070461  0.83085235    -0.05800
N164        N  0.60252757  0.90478841  0.82987770    -0.64700
Mn165      Mn  0.49984613  0.98947759  0.86138905     1.10700
C166        C  0.58313737  0.88181781  0.85905988     0.98300
C167        C  0.58879061  0.09419580  0.86657931     0.98400
N168        N  0.55678350  0.04075869  0.70876642    -0.06900
N169        N  0.57368832  0.06520281  0.68027249    -0.62300
N170        N  0.58440190  0.94568391  0.73705942    -0.06200
N171        N  0.62085526  0.92532407  0.72809121    -0.59000
N172        N  0.55676707  0.94649888  0.70597450    -0.07600
N173        N  0.57519918  0.92686847  0.67497173    -0.61900
N174        N  0.58436903  0.03988776  0.73992096    -0.06500
N175        N  0.61894923  0.06423793  0.73382126    -0.59100
Mn176      Mn  0.50110861  0.99319129  0.70519995     1.20200
Mn177      Mn  0.58368039  0.99101825  0.78600487     1.10100
Cl178      Cl  0.50080435  0.99133017  0.78343164    -0.87000
C179        C  0.61214790  0.08022552  0.69691833     0.95300
C180        C  0.61491111  0.91326400  0.68972404     0.95100
N181        N  0.05388613  0.22027962  0.44975326    -0.07200
N182        N  0.07034140  0.18948424  0.42729461    -0.59300
N183        N  0.08262910  0.25431511  0.54008443    -0.06900
N184        N  0.11891336  0.24680290  0.56082639    -0.61400
N185        N  0.05552349  0.22174821  0.54057463    -0.06500
N186        N  0.07459510  0.19084695  0.56114866    -0.59300
N187        N  0.08136340  0.25254932  0.44910244    -0.06100
N188        N  0.11547852  0.24497559  0.42573400    -0.61800
C189        C  0.10848326  0.20594746  0.41191547     0.95000
C190        C  0.11409142  0.20744593  0.57395799     0.94800
N191        N  0.05208539  0.38115808  0.54054462    -0.07400
N192        N  0.05656319  0.40462955  0.57307392    -0.59900
N193        N  0.07939471  0.35018571  0.44730389    -0.05500
N194        N  0.10121602  0.35037662  0.41304246    -0.61100
N195        N  0.04897667  0.37953994  0.44753431    -0.07400
N196        N  0.04899935  0.40004747  0.41315330    -0.60100
N197        N  0.08218424  0.35158982  0.54011499    -0.05100
N198        N  0.10796531  0.35423675  0.57224906    -0.61200
Mn199      Mn  0.08182593  0.30252747  0.49414478     1.18400
C200        C  0.09185333  0.38762270  0.59241927     0.97100
C201        C  0.08212752  0.38184068  0.39218311     0.97700
N202        N  0.94415428  0.22147406  0.54174071    -0.07400
N203        N  0.92774726  0.19155009  0.56525286    -0.63700
N204        N  0.91562820  0.25324562  0.45028263    -0.06200
N205        N  0.88100402  0.24583179  0.42699514    -0.64400
N206        N  0.94305900  0.22107317  0.45046395    -0.06900
N207        N  0.92607094  0.19051542  0.42783200    -0.64000
N208        N  0.91674922  0.25364242  0.54159269    -0.05800
N209        N  0.88285617  0.24696869  0.56543683    -0.64700
Mn210      Mn  0.99905561  0.21934903  0.49572877     1.10700
C211        C  0.88977184  0.20853764  0.58039042     0.98300
C212        C  0.88767083  0.20698514  0.41281514     0.98400
N213        N  0.94670877  0.38067640  0.44999844    -0.06900
N214        N  0.94329272  0.40398010  0.41752851    -0.62300
N215        N  0.91876367  0.35100512  0.54255975    -0.06200
N216        N  0.89549105  0.35256371  0.57595362    -0.59000
N217        N  0.94913081  0.38058506  0.54245686    -0.07600
N218        N  0.94723895  0.40298118  0.57583807    -0.61900
N219        N  0.91656902  0.35095993  0.44960124    -0.06500
N220        N  0.89178734  0.35336239  0.41676251    -0.59100
Mn221      Mn  0.99928520  0.38200514  0.49523837     1.20200
Mn222      Mn  0.91629217  0.30248093  0.49591578     1.10100
Cl223      Cl  0.99908355  0.30084411  0.49529121    -0.87000
C224        C  0.90867908  0.38683505  0.39720335     0.95300
C225        C  0.91333047  0.38529530  0.59630953     0.95100
N226        N  0.04778723  0.61114276  0.44831343    -0.07200
N227        N  0.04658300  0.59138499  0.41344189    -0.59300
N228        N  0.08150760  0.63810287  0.54185996    -0.06900
N229        N  0.10366519  0.63829364  0.57621961    -0.61400
N230        N  0.05104863  0.60862964  0.54184443    -0.06500
N231        N  0.05184109  0.58809911  0.57628730    -0.59300
N232        N  0.07845871  0.64040939  0.44818921    -0.06100
N233        N  0.09909927  0.64102558  0.41328707    -0.61800
C234        C  0.07904841  0.61006157  0.39203379     0.95000
C235        C  0.08514968  0.60673778  0.59729550     0.94800
N236        N  0.05651423  0.76680567  0.54511454    -0.07400
N237        N  0.07284459  0.79553817  0.57022413    -0.59900
N238        N  0.08104054  0.73765005  0.45224911    -0.05500
N239        N  0.11522394  0.74606462  0.42928536    -0.61100
N240        N  0.05371637  0.76981958  0.45398998    -0.07400
N241        N  0.07029684  0.80131586  0.43273337    -0.60100
N242        N  0.08394966  0.73477447  0.54337720    -0.05100
N243        N  0.11807431  0.74033849  0.56766213    -0.61200
Mn244      Mn  0.08205318  0.68727350  0.49627424     1.18400
C245        C  0.11094915  0.77792353  0.58457233     0.97100
C246        C  0.10839750  0.78552041  0.41693905     0.97700
N247        N  0.94903955  0.60897859  0.54325633    -0.07400
N248        N  0.94865745  0.58627216  0.57628088    -0.63700
N249        N  0.91636611  0.64209237  0.45172019    -0.06200
N250        N  0.89359067  0.64319320  0.41767263    -0.64400
N251        N  0.94584653  0.61189951  0.45071623    -0.06900
N252        N  0.94363260  0.59165268  0.41612224    -0.64000
N253        N  0.91909129  0.63865719  0.54504912    -0.05800
N254        N  0.89739983  0.63666132  0.57931022    -0.64700
Mn255      Mn  0.99849303  0.60846574  0.49601172     1.10700
C256        C  0.91598040  0.60364728  0.59832460     0.98300
C257        C  0.91065211  0.61129416  0.39594653     0.98400
N258        N  0.94312645  0.77114299  0.45663216    -0.06900
N259        N  0.92500521  0.80361418  0.43773612    -0.62300
N260        N  0.91866207  0.73656051  0.54760950    -0.06200
N261        N  0.88512884  0.74450728  0.57157349    -0.59000
N262        N  0.94705243  0.76812747  0.54745586    -0.07600
N263        N  0.93206468  0.79868035  0.57083520    -0.61900
N264        N  0.91451854  0.73971519  0.45678806    -0.06500
N265        N  0.87762501  0.74986709  0.43786208    -0.59100
Mn266      Mn  0.00021588  0.77055779  0.50069641     1.20200
Mn267      Mn  0.91641900  0.68875616  0.50030069     1.10100
Cl268      Cl  0.99922315  0.68947139  0.49823427    -0.87000
C269        C  0.88430325  0.78938787  0.42568454     0.95300
C270        C  0.89372217  0.78299365  0.58626379     0.95100
C271        C  0.81387049  0.87037200  0.61192096    -0.11900
C272        C  0.77866192  0.84740890  0.62906139     0.05200
C273        C  0.78527107  0.80486177  0.63741789    -0.10700
C274        C  0.82461197  0.78503702  0.62639755    -0.12300
C275        C  0.85853866  0.80714903  0.60676505    -0.02100
C276        C  0.85352558  0.85036483  0.60080627    -0.11200
C277        C  0.73508902  0.86718420  0.63846550     0.05300
H278        H  0.75956607  0.78657608  0.65184599     0.07200
H279        H  0.82767785  0.75173057  0.63160226     0.10600
H280        H  0.87893179  0.86808171  0.58534772     0.10900
H281        H  0.80996627  0.90330993  0.60538064     0.07200
C282        C  0.73354159  0.90703046  0.65614847    -0.11900
C283        C  0.69323873  0.92317909  0.66977568    -0.11200
C284        C  0.65350316  0.90013425  0.66572190    -0.02100
C285        C  0.65423621  0.86162289  0.64566953    -0.12300
C286        C  0.69475799  0.84524375  0.63216032    -0.10700
H287        H  0.76378095  0.92470006  0.66159749     0.07200
H288        H  0.69342277  0.95293257  0.68547733     0.10900
H289        H  0.62413521  0.84314340  0.64270188     0.10600
H290        H  0.69475691  0.81475221  0.61789328     0.07200
C291        C  0.19849836  0.85707060  0.61555030    -0.11900
C292        C  0.22980507  0.83078998  0.63458475     0.05200
C293        C  0.21785098  0.78901995  0.64200399    -0.10700
C294        C  0.17694315  0.77332769  0.62889933    -0.12300
C295        C  0.14680804  0.79876312  0.60780335    -0.02100
C296        C  0.15721653  0.84118580  0.60231013    -0.11200
C297        C  0.27490982  0.84621749  0.64661235     0.05300
H298        H  0.24098808  0.76773605  0.65627864     0.07200
H299        H  0.16988463  0.74038728  0.63325658     0.10600
H300        H  0.13483033  0.86128698  0.58562794     0.10900
H301        H  0.20631291  0.88964938  0.61013875     0.07200
C302        C  0.29911949  0.87413292  0.62224419    -0.11900
C303        C  0.34071971  0.88972625  0.63499269    -0.11200
C304        C  0.35861583  0.87767897  0.67232601    -0.02100
C305        C  0.33543496  0.84833029  0.69558193    -0.12300
C306        C  0.29424146  0.83279812  0.68296730    -0.10700
H307        H  0.28548981  0.88455875  0.59374612     0.07200
H308        H  0.35733568  0.91321778  0.61706078     0.10900
H309        H  0.34805820  0.83928172  0.72493111     0.10600
H310        H  0.27659509  0.81174864  0.70274579     0.07200
C311        C  0.80324769  0.12776488  0.61113606    -0.11900
C312        C  0.77252644  0.15328141  0.63157095     0.05200
C313        C  0.78387821  0.19527389  0.63877593    -0.10700
C314        C  0.82380053  0.21183403  0.62458847    -0.12300
C315        C  0.85386239  0.18698083  0.60288244    -0.02100
C316        C  0.84375967  0.14441828  0.59710338    -0.11200
C317        C  0.72906410  0.13666716  0.64628453     0.05300
H318        H  0.76107724  0.21581790  0.65428170     0.07200
H319        H  0.83038603  0.24484740  0.62922446     0.10600
H320        H  0.86591951  0.12467416  0.57997513     0.10900
H321        H  0.79570358  0.09507838  0.60571289     0.07200
C322        C  0.70097003  0.11183682  0.62174936    -0.11900
C323        C  0.66053345  0.09593767  0.63671658    -0.11200
C324        C  0.64793904  0.10417353  0.67663868    -0.02100
C325        C  0.67544945  0.12997031  0.70049460    -0.12300
C326        C  0.71517766  0.14620848  0.68550655    -0.10700
H327        H  0.71051819  0.10442210  0.59119006     0.07200
H328        H  0.64045509  0.07547620  0.61791818     0.10900
H329        H  0.66693706  0.13637904  0.73154581     0.10600
H330        H  0.73595146  0.16507631  0.70523492     0.07200
C331        C  0.31175051  0.12023850  0.61192880    -0.11900
C332        C  0.27175703  0.12447742  0.63343928     0.05200
C333        C  0.27122599  0.11487206  0.67436523    -0.10700
C334        C  0.30964142  0.10107229  0.69364437    -0.12300
C335        C  0.34964622  0.09550137  0.67237410    -0.02100
C336        C  0.35040667  0.10523533  0.63117876    -0.11200
C337        C  0.23156074  0.14318093  0.61514637     0.05300
H338        H  0.24116442  0.11900099  0.69171737     0.07200
H339        H  0.30759275  0.09417099  0.72546411     0.10600
H340        H  0.38053576  0.10105714  0.61396891     0.10900
H341        H  0.31287961  0.12829314  0.58032650     0.07200
C342        C  0.23335689  0.18468409  0.60241881    -0.11900
C343        C  0.19476109  0.20511541  0.59032201    -0.11200
C344        C  0.15325375  0.18435272  0.58970725    -0.02100
C345        C  0.15140917  0.14235150  0.60178327    -0.12300
C346        C  0.19031189  0.12206044  0.61501516    -0.10700
H347        H  0.26452409  0.20181359  0.60316472     0.07200
H348        H  0.19776122  0.23745965  0.58117132     0.10900
H349        H  0.12011060  0.12549085  0.60135377     0.10600
H350        H  0.18828926  0.09003877  0.62538712     0.07200
C351        C  0.71620714  0.85517856  0.32242226    -0.11900
C352        C  0.72311254  0.86243081  0.36363513     0.05200
C353        C  0.68823768  0.88010534  0.38617462    -0.10700
C354        C  0.64836163  0.89249829  0.36723021    -0.12300
C355        C  0.64268502  0.88702810  0.32553499    -0.02100
C356        C  0.67655954  0.86711078  0.30373002    -0.11200
C357        C  0.76613075  0.84998597  0.38268750     0.05300
H358        H  0.69246093  0.88572270  0.41813716     0.07200
H359        H  0.62313277  0.90820977  0.38469740     0.10600
H360        H  0.67311334  0.86220549  0.27156593     0.10900
H361        H  0.74171285  0.84045763  0.30446788     0.07200
C362        C  0.76623035  0.82749369  0.41882313    -0.11900
C363        C  0.80562972  0.81021448  0.43369054    -0.11200
C364        C  0.84606520  0.81543542  0.41320538    -0.02100
C365        C  0.84686667  0.84029879  0.37856455    -0.12300
C366        C  0.80709127  0.85725448  0.36327105    -0.10700
H367        H  0.73542946  0.82116395  0.43438222     0.07200
H368        H  0.80418494  0.79115490  0.46058475     0.10900
H369        H  0.87752379  0.84453465  0.36215690     0.10600
H370        H  0.80808461  0.87498214  0.33555635     0.07200
C371        C  0.30792914  0.85479823  0.37268772    -0.11900
C372        C  0.26584870  0.87050464  0.36142874     0.05200
C373        C  0.26347030  0.90327407  0.33371908    -0.10700
C374        C  0.30202061  0.91842227  0.31577446    -0.12300
C375        C  0.34398729  0.90170842  0.32559705    -0.02100
C376        C  0.34690805  0.87071100  0.35522894    -0.11200
C377        C  0.22427317  0.84998257  0.37482258     0.05300
H378        H  0.23154555  0.91563510  0.32431873     0.07200
H379        H  0.29884438  0.94266253  0.29321014     0.10600
H380        H  0.37882574  0.85738592  0.36323857     0.10900
H381        H  0.31043771  0.82945281  0.39414868     0.07200
C382        C  0.21881372  0.80694837  0.36863749    -0.11900
C383        C  0.17953656  0.78703315  0.37981730    -0.11200
C384        C  0.14485712  0.80948509  0.39801560    -0.02100
C385        C  0.14955979  0.85290816  0.40314689    -0.12300
C386        C  0.18895470  0.87308715  0.39131653    -0.10700
H387        H  0.24500605  0.78869414  0.35497792     0.07200
H388        H  0.17686578  0.75353475  0.37533501     0.10900
H389        H  0.12371243  0.87085013  0.41764666     0.10600
H390        H  0.19234778  0.90650229  0.39592799     0.07200
C391        C  0.68525681  0.15180491  0.35787048    -0.11900
C392        C  0.72489577  0.12811845  0.35810878     0.05200
C393        C  0.72321104  0.08674777  0.34396073    -0.10700
C394        C  0.68391858  0.07034198  0.32778997    -0.12300
C395        C  0.64516987  0.09463528  0.32553959    -0.02100
C396        C  0.64563190  0.13515715  0.34167134    -0.11200
C397        C  0.76846718  0.14705432  0.37024269     0.05300
H398        H  0.75288160  0.06768875  0.34324667     0.07200
H399        H  0.68430235  0.03901696  0.31522338     0.10600
H400        H  0.61623808  0.15455093  0.33982849     0.10900
H401        H  0.68517311  0.18358456  0.36919627     0.07200
C402        C  0.77835103  0.18860106  0.35992415    -0.11900
C403        C  0.81886751  0.20673448  0.37124597    -0.11200
C404        C  0.85079578  0.18387168  0.39302562    -0.02100
C405        C  0.84205700  0.14179501  0.40194148    -0.12300
C406        C  0.80120392  0.12357765  0.39074958    -0.10700
H407        H  0.75466286  0.20728439  0.34319158     0.07200
H408        H  0.82466707  0.23935349  0.36414781     0.10900
H409        H  0.86561352  0.12376039  0.41950642     0.10600
H410        H  0.79469222  0.09151876  0.39934684     0.07200
C411        C  0.19704423  0.12640518  0.38370038    -0.11900
C412        C  0.22535551  0.15120757  0.35974266     0.05200
C413        C  0.21136572  0.19182047  0.34978816    -0.10700
C414        C  0.17143791  0.20776279  0.36438987    -0.12300
C415        C  0.14396911  0.18381587  0.38947662    -0.02100
C416        C  0.15660570  0.14253059  0.39835670    -0.11200
C417        C  0.26930438  0.13557461  0.34490562     0.05300
H418        H  0.23219275  0.21216622  0.33195389     0.07200
H419        H  0.16290945  0.23987435  0.35745154     0.10600
H420        H  0.13657340  0.12362616  0.41828836     0.10900
H421        H  0.20641636  0.09477434  0.39152923     0.07200
C422        C  0.29728600  0.11034719  0.36893284    -0.11900
C423        C  0.33811079  0.09554358  0.35403372    -0.11200
C424        C  0.35148217  0.10544882  0.31474868    -0.02100
C425        C  0.32428707  0.13165439  0.29139961    -0.12300
C426        C  0.28394272  0.14652017  0.30619379    -0.10700
H427        H  0.28742997  0.10173017  0.39906924     0.07200
H428        H  0.35792737  0.07457497  0.37232459     0.10900
H429        H  0.33341132  0.13922148  0.26077168     0.10600
H430        H  0.26337590  0.16538077  0.28651003     0.07200
C431        C  0.66572429  0.69243061  0.13497148    -0.11900
C432        C  0.62268737  0.70375360  0.12219062     0.05200
C433        C  0.59722338  0.67387446  0.10062208    -0.10700
C434        C  0.61574133  0.63516964  0.08953093    -0.12300
C435        C  0.65997538  0.62580549  0.09982106    -0.02100
C436        C  0.68394384  0.65404016  0.12405991    -0.11200
C437        C  0.60691408  0.74774779  0.12840310     0.05300
H438        H  0.56369245  0.68104143  0.09088100     0.07200
H439        H  0.59674695  0.61414571  0.07035683     0.10600
H440        H  0.71825625  0.64770867  0.13209596     0.10900
H441        H  0.68690768  0.71435189  0.15102202     0.07200
C442        C  0.62132715  0.77096938  0.16217354    -0.11900
C443        C  0.61255150  0.81376134  0.16526549    -0.11200
C444        C  0.58826925  0.83461005  0.13515152    -0.02100
C445        C  0.57166102  0.81125167  0.10242001    -0.12300
C446        C  0.58107488  0.76835946  0.09894882    -0.10700
H447        H  0.64008713  0.75626143  0.18613882     0.07200
H448        H  0.62502302  0.83059122  0.19138102     0.10900
H449        H  0.55249355  0.82637318  0.07893458     0.10600
H450        H  0.56960966  0.75186102  0.07231299     0.07200
C451        C  0.60736352  0.29614990  0.07372326    -0.11900
C452        C  0.62339653  0.27308322  0.10685242     0.05200
C453        C  0.65359068  0.29271306  0.13355513    -0.10700
C454        C  0.67091907  0.33229275  0.12508659    -0.12300
C455        C  0.65722222  0.35391816  0.09061935    -0.02100
C456        C  0.62402646  0.33633967  0.06580346    -0.11200
C457        C  0.61243994  0.22770751  0.11172126     0.05300
H458        H  0.66559572  0.27663971  0.16012025     0.07200
H459        H  0.69683420  0.34512175  0.14435180     0.10600
H460        H  0.61381734  0.35210311  0.03844408     0.10900
H461        H  0.58433403  0.28216152  0.05236616     0.07200
C462        C  0.57043855  0.21121706  0.10098856    -0.11900
C463        C  0.56135596  0.16836140  0.10554646    -0.11200
C464        C  0.59388170  0.14133987  0.12134519    -0.02100
C465        C  0.63574594  0.15762569  0.13160080    -0.12300
C466        C  0.64508470  0.20003597  0.12639931    -0.10700
H467        H  0.54437764  0.23145280  0.08978751     0.07200
H468        H  0.52854645  0.15659326  0.09785026     0.10900
H469        H  0.66146740  0.13741613  0.14355015     0.10600
H470        H  0.67830262  0.21101985  0.13365275     0.07200
C471        C  0.60777001  0.68336408  0.91357468    -0.11900
C472        C  0.62046400  0.70490182  0.87854373     0.05200
C473        C  0.64712656  0.68381698  0.85028606    -0.10700
C474        C  0.66443523  0.64423675  0.85881901    -0.12300
C475        C  0.65403384  0.62422353  0.89497242    -0.02100
C476        C  0.62419343  0.64328238  0.92153771    -0.11200
C477        C  0.60984429  0.75023439  0.87334592     0.05300
H478        H  0.65652202  0.69872051  0.82240074     0.07200
H479        H  0.68800129  0.63030473  0.83827134     0.10600
H480        H  0.61686696  0.62884572  0.95021252     0.10900
H481        H  0.58779919  0.69849402  0.93630284     0.07200
C482        C  0.57019261  0.76763362  0.88827055    -0.11900
C483        C  0.56182401  0.81061404  0.88466551    -0.11200
C484        C  0.59265150  0.83696905  0.86563836    -0.02100
C485        C  0.63206970  0.81972167  0.85076770    -0.12300
C486        C  0.64076158  0.77708965  0.85489329    -0.10700
H487        H  0.54535943  0.74805401  0.90231805     0.07200
H488        H  0.53085147  0.82304489  0.89597060     0.10900
H489        H  0.65648533  0.83932930  0.83609645     0.10600
H490        H  0.67226636  0.76541590  0.84414128     0.07200
C491        C  0.66637032  0.28666984  0.85941383    -0.11900
C492        C  0.63245884  0.26979335  0.88354428     0.05200
C493        C  0.61161024  0.29620910  0.91165988    -0.10700
C494        C  0.62676786  0.33723522  0.91768944    -0.12300
C495        C  0.66340538  0.35231906  0.89618057    -0.02100
C496        C  0.68213512  0.32723890  0.86615835    -0.11200
C497        C  0.62131421  0.22428849  0.88123807     0.05300
H498        H  0.58565488  0.28444862  0.93104099     0.07200
H499        H  0.61266351  0.35567086  0.94180543     0.10600
H500        H  0.71083818  0.33815321  0.84961340     0.10900
H501        H  0.68222116  0.26793232  0.83649431     0.07200
C502        C  0.57785346  0.20972829  0.88847217    -0.11900
C503        C  0.56788032  0.16701399  0.88591567    -0.11200
C504        C  0.60070219  0.13807663  0.87534824    -0.02100
C505        C  0.64421377  0.15223552  0.86890342    -0.12300
C506        C  0.65455710  0.19472845  0.87236956    -0.10700
H507        H  0.55123319  0.23133859  0.89498670     0.07200
H508        H  0.53396877  0.15673197  0.89030379     0.10900
H509        H  0.67017747  0.13040844  0.86084208     0.10600
H510        H  0.68873876  0.20431828  0.86800138     0.07200
C511        C  0.93855033  0.56924062  0.70452892    -0.11900
C512        C  0.90374618  0.58897884  0.72529380     0.05200
C513        C  0.87074690  0.61006058  0.70308703    -0.10700
C514        C  0.87372375  0.61328719  0.66144293    -0.12300
C515        C  0.90917714  0.59472270  0.64107256    -0.02100
C516        C  0.94089702  0.57167091  0.66272797    -0.11200
C517        C  0.90132523  0.58731115  0.76980147     0.05300
H518        H  0.84259525  0.62434375  0.71779321     0.07200
H519        H  0.84874701  0.63104143  0.64525724     0.10600
H520        H  0.96871526  0.55721886  0.64760813     0.10900
H521        H  0.96483519  0.55305414  0.72048056     0.07200
C522        C  0.91645626  0.55187897  0.79067516    -0.11900
C523        C  0.91100260  0.54895162  0.83209290    -0.11200
C524        C  0.88929218  0.58081586  0.85332941    -0.02100
C525        C  0.87550827  0.61685591  0.83306220    -0.12300
C526        C  0.88216945  0.62040514  0.79171519    -0.10700
H527        H  0.93078914  0.52552466  0.77499268     0.07200
H528        H  0.92173521  0.52065752  0.84713218     0.10900
H529        H  0.85908135  0.64192471  0.84905803     0.10600
H530        H  0.87157059  0.64882380  0.77689782     0.07200
C531        C  0.85145065  0.61089115  0.20421097    -0.11900
C532        C  0.88777220  0.59276234  0.22452173     0.05200
C533        C  0.92022524  0.57167246  0.20201989    -0.10700
C534        C  0.91589269  0.56808050  0.16029708    -0.12300
C535        C  0.87920942  0.58568666  0.14029189    -0.02100
C536        C  0.84742072  0.60767908  0.16250642    -0.11200
C537        C  0.89187977  0.59635661  0.26891118     0.05300
H538        H  0.94905683  0.55803398  0.21656866     0.07200
H539        H  0.94086836  0.55092063  0.14376739     0.10600
H540        H  0.81852890  0.62115290  0.14785062     0.10900
H541        H  0.82545048  0.62672701  0.22059371     0.07200
C542        C  0.87809767  0.63303027  0.28857168    -0.11900
C543        C  0.88246875  0.63701153  0.33015728    -0.11200
C544        C  0.90150092  0.60475316  0.35290325    -0.02100
C545        C  0.91507895  0.56791917  0.33358802    -0.12300
C546        C  0.90994900  0.56358002  0.29196699    -0.10700
H547        H  0.86498675  0.65925527  0.27174616     0.07200
H548        H  0.87246632  0.66602369  0.34429304     0.10900
H549        H  0.92994786  0.54264047  0.35061084     0.10600
H550        H  0.92018299  0.53463556  0.27791475     0.07200
C551        C  0.84846032  0.39595515  0.78574136    -0.11900
C552        C  0.88769549  0.40886913  0.76654080     0.05200
C553        C  0.92349815  0.42349220  0.79032525    -0.10700
C554        C  0.91991038  0.42527980  0.83223383    -0.12300
C555        C  0.88088246  0.41166406  0.85108933    -0.02100
C556        C  0.84534464  0.39679273  0.82752011    -0.11200
C557        C  0.89156842  0.40544843  0.72209119     0.05300
H558        H  0.95449137  0.43305907  0.77670693     0.07200
H559        H  0.94762226  0.43718888  0.84990408     0.10600
H560        H  0.81446122  0.38705455  0.84130201     0.10900
H561        H  0.81975502  0.38562484  0.76851712     0.07200
C562        C  0.87055651  0.37225339  0.70150627    -0.11900
C563        C  0.87579562  0.36725379  0.66020984    -0.11200
C564        C  0.90294678  0.39475094  0.63856321    -0.02100
C565        C  0.92304464  0.42869319  0.65857809    -0.12300
C566        C  0.91714959  0.43418882  0.69997362    -0.10700
H567        H  0.85132904  0.34900314  0.71743577     0.07200
H568        H  0.86009194  0.34065872  0.64558694     0.10900
H569        H  0.94402316  0.45044191  0.64243668     0.10600
H570        H  0.93300008  0.46065863  0.71464215     0.07200
C571        C  0.86210764  0.37857391  0.29215527    -0.11900
C572        C  0.88974004  0.40670964  0.27153956     0.05200
C573        C  0.91970505  0.43180195  0.29357568    -0.10700
C574        C  0.92347325  0.42737387  0.33511399    -0.12300
C575        C  0.89800390  0.39724998  0.35524823    -0.02100
C576        C  0.86632373  0.37375671  0.33369946    -0.11200
C577        C  0.88821341  0.40912726  0.22714755     0.05300
H578        H  0.94165548  0.45357645  0.27859108     0.07200
H579        H  0.94798036  0.44609421  0.35113377     0.10600
H580        H  0.84604505  0.35056318  0.34865681     0.10900
H581        H  0.83782833  0.35966798  0.27606844     0.07200
C582        C  0.88206840  0.37274333  0.20375685    -0.11900
C583        C  0.87926082  0.37530006  0.16188825    -0.11200
C584        C  0.88374088  0.41406300  0.14291667    -0.02100
C585        C  0.89133646  0.45017251  0.16603141    -0.12300
C586        C  0.89309830  0.44783451  0.20780266    -0.10700
H587        H  0.87931932  0.34234316  0.21780259     0.07200
H588        H  0.87349316  0.34716110  0.14435374     0.10900
H589        H  0.89397704  0.48050224  0.15184783     0.10600
H590        H  0.89713410  0.47647770  0.22491602     0.07200
C591        C  0.33586779  0.69170555  0.85648711    -0.11900
C592        C  0.37829768  0.70405267  0.87018825     0.05200
C593        C  0.40401519  0.67503320  0.89211579    -0.10700
C594        C  0.38624537  0.63589541  0.90264464    -0.12300
C595        C  0.34248157  0.62537446  0.89152237    -0.02100
C596        C  0.31827854  0.65290903  0.86700481    -0.11200
C597        C  0.39311811  0.74825243  0.86465871     0.05300
H598        H  0.43708663  0.68326596  0.90259377     0.07200
H599        H  0.40530885  0.61543991  0.92210475     0.10600
H600        H  0.28426558  0.64566328  0.85841935     0.10900
H601        H  0.31472615  0.71314055  0.84004427     0.07200
C602        C  0.38087487  0.77040681  0.82979149    -0.11900
C603        C  0.38887452  0.81331200  0.82686527    -0.11200
C604        C  0.41007187  0.83514985  0.85837478    -0.02100
C605        C  0.42436271  0.81291978  0.89244343    -0.12300
C606        C  0.41570259  0.76992994  0.89569375    -0.10700
H607        H  0.36441577  0.75470346  0.80489050     0.07200
H608        H  0.37837650  0.82941811  0.79978195     0.10900
H609        H  0.44112970  0.82896538  0.91699082     0.10600
H610        H  0.42517311  0.75408265  0.92320191     0.07200
C611        C  0.42562583  0.20919530  0.89454496    -0.11900
C612        C  0.38798480  0.22782668  0.87647709     0.05200
C613        C  0.35828796  0.20168744  0.85488771    -0.10700
C614        C  0.36666586  0.15896950  0.85046120    -0.12300
C615        C  0.40409181  0.14074385  0.86864125    -0.02100
C616        C  0.43291270  0.16609536  0.89140727    -0.11200
C617        C  0.37831398  0.27355747  0.88170662     0.05300
H618        H  0.32797614  0.21377921  0.84170555     0.07200
H619        H  0.34358537  0.14010409  0.83295491     0.10600
H620        H  0.46157315  0.15263573  0.90631133     0.10900
H621        H  0.44989743  0.22769388  0.91094151     0.07200
C622        C  0.39373649  0.29568751  0.91592392    -0.11900
C623        C  0.37939020  0.33649555  0.92365192    -0.11200
C624        C  0.34852511  0.35572652  0.89797720    -0.02100
C625        C  0.33512197  0.33511441  0.86269798    -0.12300
C626        C  0.35068307  0.29493257  0.85410867    -0.10700
H627        H  0.41440476  0.28083771  0.93844101     0.07200
H628        H  0.38902956  0.35141042  0.95173163     0.10900
H629        H  0.31064698  0.34920422  0.84289725     0.10600
H630        H  0.33930863  0.28016187  0.82655701     0.07200
C631        C  0.39557040  0.68381313  0.08105261    -0.11900
C632        C  0.38237461  0.70475277  0.11633136     0.05200
C633        C  0.35532394  0.68314435  0.14390864    -0.10700
C634        C  0.33784221  0.64377100  0.13427427    -0.12300
C635        C  0.34864147  0.62450788  0.09779434    -0.02100
C636        C  0.37907437  0.64391651  0.07205319    -0.11200
C637        C  0.39228260  0.75019107  0.12197784     0.05300
H638        H  0.34561640  0.69755202  0.17198861     0.07200
H639        H  0.31391814  0.62941372  0.15423456     0.10600
H640        H  0.38681441  0.62994158  0.04321086     0.10900
H641        H  0.41584891  0.69932170  0.05879144     0.07200
C642        C  0.43136969  0.76841153  0.10664171    -0.11900
C643        C  0.43834193  0.81166803  0.10919524    -0.11200
C644        C  0.40682231  0.83750999  0.12775828    -0.02100
C645        C  0.36822421  0.81943638  0.14357976    -0.12300
C646        C  0.36082498  0.77644685  0.14039722    -0.10700
H647        H  0.45670019  0.74933360  0.09278377     0.07200
H648        H  0.46876158  0.82479243  0.09729751     0.10900
H649        H  0.34341646  0.83865704  0.15809411     0.10600
H650        H  0.32974211  0.76408475  0.15157230     0.07200
C651        C  0.41639165  0.21124301  0.09223169    -0.11900
C652        C  0.39524810  0.23226019  0.12416168     0.05200
C653        C  0.38449005  0.20950271  0.15886326    -0.10700
C654        C  0.39220157  0.16660491  0.16080810    -0.12300
C655        C  0.41163785  0.14521027  0.12842252    -0.02100
C656        C  0.42476699  0.16806117  0.09445260    -0.11200
C657        C  0.37971937  0.27627792  0.11984861     0.05300
H658        H  0.36911043  0.22475137  0.18433092     0.07200
H659        H  0.38267911  0.15011017  0.18787622     0.10600
H660        H  0.44017376  0.15237648  0.06924400     0.10900
H661        H  0.42474327  0.22777793  0.06489028     0.07200
C662        C  0.40510864  0.30680782  0.09979529    -0.11900
C663        C  0.38671892  0.34608306  0.09071764    -0.11200
C664        C  0.34258510  0.35506779  0.10122370    -0.02100
C665        C  0.31869210  0.32584304  0.12394953    -0.12300
C666        C  0.33695412  0.28701191  0.13315461    -0.10700
H667        H  0.43839289  0.29968216  0.08968921     0.07200
H668        H  0.40563444  0.36792988  0.07273036     0.10900
H669        H  0.28446708  0.33187891  0.13209530     0.10600
H670        H  0.31617160  0.26432154  0.14826202     0.07200
C671        C  0.12176156  0.62729801  0.70408082    -0.11900
C672        C  0.10244231  0.59364423  0.72481261     0.05200
C673        C  0.07844022  0.56329042  0.70278783    -0.04100
C674        C  0.07369084  0.56676861  0.66104237    -0.12300
C675        C  0.09314325  0.60045899  0.64061013    -0.02100
C676        C  0.11751094  0.63044730  0.66246582    -0.11200
C677        C  0.10802858  0.59021774  0.76910224     0.05300
H678        H  0.06351768  0.53676735  0.71771435     0.07200
H679        H  0.05460213  0.54330467  0.64481258     0.10600
H680        H  0.13225825  0.65714854  0.64757443     0.10900
H681        H  0.13950570  0.65182607  0.72004349     0.07200
C682        C  0.14789612  0.60348653  0.78760289    -0.11900
C683        C  0.15380547  0.60005321  0.82904259    -0.11200
C684        C  0.12048052  0.58229204  0.85281240    -0.02100
C685        C  0.08043113  0.56924659  0.83472318    -0.12300
C686        C  0.07405547  0.57355035  0.79323537    -0.10700
H687        H  0.17520717  0.61551269  0.76997934     0.07200
H688        H  0.18530815  0.60965383  0.84221377     0.10900
H689        H  0.05429221  0.55536916  0.85258822     0.10600
H690        H  0.04260348  0.56376233  0.78013753     0.07200
C691        C  0.08267232  0.55661063  0.20025508    -0.11900
C692        C  0.09918158  0.59226385  0.22030321     0.05200
C693        C  0.12170103  0.62296759  0.19788411    -0.10700
C694        C  0.12946600  0.61709146  0.15684999    -0.12300
C695        C  0.11391308  0.58089119  0.13737190    -0.02100
C696        C  0.08945360  0.55136987  0.15916494    -0.11200
C697        C  0.09415092  0.59653068  0.26454548     0.05300
H698        H  0.13381420  0.65138450  0.21209743     0.07200
H699        H  0.14808441  0.64048797  0.14050264     0.10600
H700        H  0.07701049  0.52318612  0.14470661     0.10900
H701        H  0.06581616  0.53200153  0.21645199     0.07200
C702        C  0.05622697  0.58067176  0.28392251    -0.11900
C703        C  0.05213929  0.58373325  0.32560225    -0.11200
C704        C  0.08541652  0.60346514  0.34867214    -0.02100
C705        C  0.12320434  0.61943251  0.32956170    -0.12300
C706        C  0.12776199  0.61563399  0.28795288    -0.10700
H707        H  0.02924908  0.56651029  0.26690041     0.07200
H708        H  0.02228353  0.57175453  0.33961027     0.10900
H709        H  0.14925460  0.63483053  0.34680945     0.10600
H710        H  0.15786841  0.62733587  0.27425087     0.07200
C711        C  0.09182210  0.43628551  0.69594414    -0.11900
C712        C  0.11951059  0.40847984  0.71721309     0.05200
C713        C  0.14177076  0.37699232  0.69576584    -0.10700
C714        C  0.13493786  0.37215375  0.65454595    -0.12300
C715        C  0.10508781  0.39816990  0.63392852    -0.02100
C716        C  0.08450025  0.43105109  0.65465713    -0.11200
C717        C  0.12344549  0.41057004  0.76174872     0.05300
H718        H  0.16284517  0.35459279  0.71102773     0.07200
H719        H  0.15126795  0.34653715  0.63928392     0.10600
H720        H  0.06155258  0.45175773  0.63931457     0.10900
H721        H  0.07496137  0.46143911  0.71132408     0.07200
C722        C  0.16334778  0.39914707  0.78111254    -0.11900
C723        C  0.16635214  0.39868648  0.82297347    -0.11200
C724        C  0.12994621  0.41072189  0.84636781    -0.02100
C725        C  0.09022872  0.42269321  0.82734612    -0.12300
C726        C  0.08680322  0.42215388  0.78541195    -0.10700
H727        H  0.19255430  0.39101000  0.76398492     0.07200
H728        H  0.19770438  0.39025787  0.83700395     0.10900
H729        H  0.06182368  0.43233383  0.84492364     0.10600
H730        H  0.05524740  0.43027535  0.77165835     0.07200
C731        C  0.05923764  0.40410310  0.28306492    -0.11900
C732        C  0.09966173  0.39262648  0.26502603     0.05200
C733        C  0.13514019  0.37967290  0.28989586    -0.10700
C734        C  0.12983540  0.37706039  0.33150676    -0.12300
C735        C  0.08945857  0.38851877  0.34910941    -0.02100
C736        C  0.05446945  0.40264224  0.32470078    -0.11200
C737        C  0.10482381  0.39455356  0.22060347     0.05300
H738        H  0.16711465  0.37160407  0.27736067     0.07200
H739        H  0.15720995  0.36597919  0.34993479     0.10600
H740        H  0.02269816  0.41082875  0.33765604     0.10900
H741        H  0.03074107  0.41324299  0.26510879     0.07200
C742        C  0.13321101  0.36670755  0.20028971    -0.11900
C743        C  0.13989788  0.37039419  0.15887153    -0.11200
C744        C  0.11748275  0.40129900  0.13687964    -0.02100
C745        C  0.08740310  0.42754329  0.15665696    -0.12300
C746        C  0.08173046  0.42479778  0.19807654    -0.10700
H747        H  0.15057797  0.34218838  0.21632844     0.07200
H748        H  0.16307995  0.34955768  0.14420548     0.10900
H749        H  0.06919567  0.45130342  0.14023791     0.10600
H750        H  0.06015022  0.44726353  0.21241353     0.07200
loop_ 
_geom_bond_atom_site_label_1 
_geom_bond_atom_site_label_2 
_geom_bond_distance 
_geom_bond_site_symmetry_2 
_ccdc_geom_bond_type 
N1            N2   1.328       .  A
N1            N7   1.319       .  A
N1          Mn30   2.232   1_554  S
N2            C9   1.359       .  A
N3            N5   1.318       .  A
N3            N4   1.315       .  A
N3          Mn19   2.189       .  S
N4           C10   1.345       .  A
N5            N6   1.325       .  A
N5          Mn30   2.219       .  S
N6           C10   1.357       .  A
N7            N8   1.314       .  A
N7          Mn19   2.188   1_554  S
N8            C9   1.346       .  A
C9          C664   1.476       .  S
C10         C624   1.467       .  S
N11          N17   1.313       .  A
N11          N12   1.319       .  A
N11         Mn41   2.181       .  S
N12          C20   1.350       .  A
N13          N14   1.321       .  A
N13          N15   1.312       .  A
N13         Mn19   2.197   1_554  S
N14          C21   1.354       .  A
N15          N16   1.316       .  A
N15         Mn41   2.173   1_554  S
N16          C21   1.350       .  A
N17          N18   1.319       .  A
N17         Mn19   2.193       .  S
N18          C20   1.352       .  A
Mn19        Cl43   2.501       .  S
C20         C724   1.468       .  S
C21         C744   1.471       .  S
N22          N23   1.328       .  A
N22          N28   1.319       .  A
N22         Mn30   2.234       .  S
N23          C31   1.360       .  A
N24          N26   1.319       .  A
N24          N25   1.317       .  A
N24         Mn42   2.198   1_554  S
N25          C32   1.348       .  A
N26          N27   1.324       .  A
N26         Mn30   2.215   1_554  S
N27          C32   1.354       .  A
N28          N29   1.313       .  A
N28         Mn42   2.186       .  S
N29          C31   1.345       .  A
Mn30        Cl43   2.583       .  S
C31         C595   1.475       .  S
C32         C635   1.466       .  S
N33          N34   1.317       .  A
N33          N39   1.313       .  A
N33         Mn41   2.181   1_554  S
N34          C44   1.351       .  A
N35          N36   1.319       .  A
N35          N37   1.312       .  A
N35         Mn42   2.197       .  S
N36          C45   1.353       .  A
N37          N38   1.318       .  A
N37         Mn41   2.175       .  S
N38          C45   1.350       .  A
N39          N40   1.320       .  A
N39         Mn42   2.196   1_554  S
N40          C44   1.353       .  A
Mn41        Cl43   2.581       .  S
Mn42        Cl43   2.503       .  S
C44         C695   1.470       .  S
C45         C684   1.468       .  S
N46          N47   1.315       .  A
N46          N52   1.313       .  A
N46         Mn75   2.168   1_554  S
N47          C54   1.347       .  A
N48          N50   1.313       .  A
N48          N49   1.319       .  A
N48         Mn64   2.197       .  S
N49          C55   1.352       .  A
N50          N51   1.320       .  A
N50         Mn75   2.181       .  S
N51          C55   1.350       .  A
N52          N53   1.320       .  A
N52         Mn64   2.199   1_554  S
N53          C54   1.353       .  A
C54         C584   1.461       .  S
C55         C555   1.470       .  S
N56          N62   1.319       .  A
N56          N57   1.325       .  A
N56         Mn86   2.224       .  S
N57          C65   1.357       .  A
N58          N59   1.317       .  A
N58          N60   1.320       .  A
N58         Mn64   2.201   1_554  S
N59          C66   1.347       .  A
N60          N61   1.326       .  A
N60         Mn86   2.225   1_554  S
N61          C66   1.356       .  A
N62          N63   1.315       .  A
N62         Mn64   2.189       .  S
N63          C65   1.346       .  A
Mn64        Cl88   2.506       .  S
C65         C495   1.469       .  S
C66         C455   1.473       .  S
N67          N68   1.314       .  A
N67          N73   1.312       .  A
N67         Mn75   2.164       .  S
N68          C76   1.347       .  A
N69          N71   1.313       .  A
N69          N70   1.319       .  A
N69         Mn87   2.197   1_554  S
N70          C77   1.353       .  A
N71          N72   1.318       .  A
N71         Mn75   2.179   1_554  S
N72          C77   1.350       .  A
N73          N74   1.321       .  A
N73         Mn87   2.199       .  S
N74          C76   1.355       .  A
Mn75        Cl88   2.579       .  S
C76         C524   1.464       .  S
C77         C535   1.470       .  S
N78          N79   1.329       .  A
N78          N84   1.319       .  A
N78         Mn86   2.234   1_554  S
N79          C89   1.360       .  A
N80          N81   1.316       .  A
N80          N82   1.319       .  A
N80         Mn87   2.194       .  S
N81          C90   1.347       .  A
N82          N83   1.325       .  A
N82         Mn86   2.223       .  S
N83          C90   1.356       .  A
N84          N85   1.313       .  A
N84         Mn87   2.189   1_554  S
N85          C89   1.346       .  A
Mn86        Cl88   2.580       .  S
Mn87        Cl88   2.506       .  S
C89         C435   1.478       .  S
C90         C475   1.468       .  S
N91          N92   1.331       .  A
N91          N97   1.319       .  A
N91        Mn120   2.249   1_545  S
N92          C99   1.362       .  A
N93          N95   1.321       .  A
N93          N94   1.312       .  A
N93        Mn109   2.178       .  S
N94         C100   1.342       .  A
N95          N96   1.330       .  A
N95        Mn120   2.245       .  S
N96         C100   1.360       .  A
N97          N98   1.314       .  A
N97        Mn109   2.184   1_545  S
N98          C99   1.344       .  A
C99         C424   1.482       .  S
C100        C375   1.478       .  S
N101        N107   1.312       .  A
N101        N102   1.322       .  A
N101       Mn131   2.194       .  S
N102        C110   1.353       .  A
N103        N104   1.316       .  A
N103        N105   1.313       .  A
N103       Mn109   2.182   1_545  S
N104        C111   1.348       .  A
N105        N106   1.327       .  A
N105       Mn131   2.212   1_545  S
N106        C111   1.357       .  A
N107        N108   1.319       .  A
N107       Mn109   2.192       .  S
N108        C110   1.352       .  A
Mn109      Cl133   2.493       .  S
C110        C644   1.476       .  S
C111        C655   1.482       .  S
N112        N113   1.331       .  A
N112        N118   1.319       .  A
N112       Mn120   2.255       .  S
N113        C121   1.364       .  A
N114        N116   1.321       .  A
N114        N115   1.314       .  A
N114       Mn132   2.187   1_545  S
N115        C122   1.345       .  A
N116        N117   1.329       .  A
N116       Mn120   2.242   1_545  S
N117        C122   1.359       .  A
N118        N119   1.312       .  A
N118       Mn132   2.179       .  S
N119        C121   1.343       .  A
Mn120      Cl133   2.592       .  S
C121        C355   1.484       .  S
C122        C395   1.474       .  S
N123        N124   1.323       .  A
N123        N129   1.313       .  A
N123       Mn131   2.194   1_545  S
N124        C134   1.353       .  A
N125        N126   1.320       .  A
N125        N127   1.313       .  A
N125       Mn132   2.195       .  S
N126        C135   1.351       .  A
N127        N128   1.326       .  A
N127       Mn131   2.215       .  S
N128        C135   1.356       .  A
N129        N130   1.320       .  A
N129       Mn132   2.201   1_545  S
N130        C134   1.353       .  A
Mn131      Cl133   2.590       .  S
Mn132      Cl133   2.495       .  S
C134        C464   1.479       .  S
C135        C444   1.487       .  S
N136        N137   1.323       .  A
N136        N142   1.312       .  A
N136       Mn165   2.204   1_545  S
N137        C144   1.356       .  A
N138        N140   1.311       .  A
N138        N139   1.318       .  A
N138       Mn154   2.180       .  S
N139        C145   1.350       .  A
N140        N141   1.324       .  A
N140       Mn165   2.204       .  S
N141        C145   1.355       .  A
N142        N143   1.319       .  A
N142       Mn154   2.185   1_545  S
N143        C144   1.350       .  A
C144        C615   1.479       .  S
C145        C604   1.480       .  S
N146        N152   1.319       .  A
N146        N147   1.331       .  A
N146       Mn176   2.255       .  S
N147        C155   1.364       .  A
N148        N149   1.309       .  A
N148        N150   1.319       .  A
N148       Mn154   2.168   1_545  S
N149        C156   1.341       .  A
N150        N151   1.332       .  A
N150       Mn176   2.256   1_545  S
N151        C156   1.365       .  A
N152        N153   1.311       .  A
N152       Mn154   2.170       .  S
N153        C155   1.341       .  A
Mn154      Cl178   2.490       .  S
C155        C304   1.476       .  S
C156        C335   1.486       .  S
N157        N158   1.323       .  A
N157        N163   1.313       .  A
N157       Mn165   2.199       .  S
N158        C166   1.353       .  A
N159        N161   1.313       .  A
N159        N160   1.318       .  A
N159       Mn177   2.188   1_545  S
N160        C167   1.350       .  A
N161        N162   1.323       .  A
N161       Mn165   2.203   1_545  S
N162        C167   1.356       .  A
N163        N164   1.320       .  A
N163       Mn177   2.197       .  S
N164        C166   1.352       .  A
Mn165      Cl178   2.591       .  S
C166        C484   1.479       .  S
C167        C504   1.475       .  S
N168        N169   1.332       .  A
N168        N174   1.322       .  A
N168       Mn176   2.260   1_545  S
N169        C179   1.364       .  A
N170        N171   1.312       .  A
N170        N172   1.321       .  A
N170       Mn177   2.175       .  S
N171        C180   1.341       .  A
N172        N173   1.330       .  A
N172       Mn176   2.246       .  S
N173        C180   1.360       .  A
N174        N175   1.314       .  A
N174       Mn177   2.191   1_545  S
N175        C179   1.344       .  A
Mn176      Cl178   2.600       .  S
Mn177      Cl178   2.493       .  S
C179        C324   1.485       .  S
C180        C284   1.474       .  S
N181        N182   1.332       .  A
N181        N187   1.320       .  A
N181       Mn210   2.256   1_455  S
N182        C189   1.364       .  A
N183        N185   1.320       .  A
N183        N184   1.309       .  A
N183       Mn199   2.172       .  S
N184        C190   1.341       .  A
N185        N186   1.332       .  A
N185       Mn210   2.251   1_455  S
N186        C190   1.364       .  A
N187        N188   1.314       .  A
N187       Mn199   2.186       .  S
N188        C189   1.344       .  A
C189        C415   1.486       .  S
C190        C344   1.485       .  S
N191        N197   1.311       .  A
N191        N192   1.320       .  A
N191       Mn221   2.180   1_455  S
N192        C200   1.353       .  A
N193        N194   1.318       .  A
N193        N195   1.313       .  A
N193       Mn199   2.182       .  S
N194        C201   1.350       .  A
N195        N196   1.318       .  A
N195       Mn221   2.188   1_455  S
N196        C201   1.352       .  A
N197        N198   1.317       .  A
N197       Mn199   2.186       .  S
N198        C200   1.352       .  A
Mn199      Cl223   2.489   1_455  S
C200        C715   1.470       .  S
C201        C735   1.466       .  S
N202        N203   1.332       .  A
N202        N208   1.320       .  A
N202       Mn210   2.259       .  S
N203        C211   1.365       .  A
N204        N206   1.320       .  A
N204        N205   1.313       .  A
N204       Mn222   2.182       .  S
N205        C212   1.343       .  A
N206        N207   1.330       .  A
N206       Mn210   2.250       .  S
N207        C212   1.362       .  A
N208        N209   1.313       .  A
N208       Mn222   2.180       .  S
N209        C211   1.343       .  A
Mn210      Cl223   2.606       .  S
C211        C315   1.486       .  S
C212        C404   1.479       .  S
N213        N214   1.316       .  A
N213        N219   1.311       .  A
N213       Mn221   2.173       .  S
N214        C224   1.350       .  A
N215        N216   1.317       .  A
N215        N217   1.312       .  A
N215       Mn222   2.190       .  S
N216        C225   1.352       .  A
N217        N218   1.320       .  A
N217       Mn221   2.184       .  S
N218        C225   1.353       .  A
N219        N220   1.319       .  A
N219       Mn222   2.187       .  S
N220        C224   1.353       .  A
Mn221      Cl223   2.595       .  S
Mn222      Cl223   2.490       .  S
C224        C575   1.467       .  S
C225        C564   1.471       .  S
N226        N227   1.318       .  A
N226        N232   1.312       .  A
N226       Mn255   2.179   1_455  S
N227        C234   1.351       .  A
N228        N230   1.312       .  A
N228        N229   1.317       .  A
N228       Mn244   2.186       .  S
N229        C235   1.351       .  A
N230        N231   1.321       .  A
N230       Mn255   2.186   1_455  S
N231        C235   1.352       .  A
N232        N233   1.319       .  A
N232       Mn244   2.189       .  S
N233        C234   1.352       .  A
C234        C704   1.469       .  S
C235        C675   1.471       .  S
N236        N242   1.318       .  A
N236        N237   1.329       .  A
N236       Mn266   2.241       .  S
N237        C245   1.362       .  A
N238        N239   1.312       .  A
N238        N240   1.320       .  A
N238       Mn244   2.179       .  S
N239        C246   1.343       .  A
N240        N241   1.329       .  A
N240       Mn266   2.243       .  S
N241        C246   1.362       .  A
N242        N243   1.312       .  A
N242       Mn244   2.178       .  S
N243        C245   1.344       .  A
Mn244      Cl268   2.493   1_455  S
C245        C295   1.477       .  S
C246        C384   1.480       .  S
N247        N248   1.317       .  A
N247        N253   1.312       .  A
N247       Mn255   2.170       .  S
N248        C256   1.350       .  A
N249        N251   1.313       .  A
N249        N250   1.318       .  A
N249       Mn267   2.195       .  S
N250        C257   1.352       .  A
N251        N252   1.319       .  A
N251       Mn255   2.179       .  S
N252        C257   1.350       .  A
N253        N254   1.318       .  A
N253       Mn267   2.189       .  S
N254        C256   1.352       .  A
Mn255      Cl268   2.591       .  S
C256        C515   1.465       .  S
C257        C544   1.468       .  S
N258        N259   1.331       .  A
N258        N264   1.321       .  A
N258       Mn266   2.248   1_655  S
N259        C269   1.361       .  A
N260        N261   1.314       .  A
N260        N262   1.320       .  A
N260       Mn267   2.190       .  S
N261        C270   1.346       .  A
N262        N263   1.328       .  A
N262       Mn266   2.239   1_655  S
N263        C270   1.360       .  A
N264        N265   1.313       .  A
N264       Mn267   2.182       .  S
N265        C269   1.343       .  A
Mn266      Cl268   2.594   1_455  S
Mn267      Cl268   2.491       .  S
C269        C364   1.479       .  S
C270        C275   1.481       .  S
C271        C272   1.411       .  A
C271        C276   1.406       .  A
C271        H281   1.082       .  S
C272        C277   1.491       .  S
C272        C273   1.403       .  A
C273        C274   1.395       .  A
C273        H278   1.083       .  S
C274        C275   1.405       .  A
C274        H279   1.083       .  S
C275        C276   1.405       .  A
C276        H280   1.083       .  S
C277        C282   1.402       .  A
C277        C286   1.413       .  A
C282        C283   1.397       .  A
C282        H287   1.083       .  S
C283        C284   1.407       .  A
C283        H288   1.084       .  S
C284        C285   1.399       .  A
C285        C286   1.404       .  A
C285        H289   1.083       .  S
C286        H290   1.083       .  S
C291        C292   1.411       .  A
C291        C296   1.407       .  A
C291        H301   1.083       .  S
C292        C297   1.493       .  S
C292        C293   1.405       .  A
C293        C294   1.393       .  A
C293        H298   1.082       .  S
C294        C295   1.404       .  A
C294        H299   1.084       .  S
C295        C296   1.404       .  A
C296        H300   1.083       .  S
C297        C302   1.411       .  A
C297        C306   1.405       .  A
C302        C303   1.407       .  A
C302        H307   1.083       .  S
C303        C304   1.404       .  A
C303        H308   1.083       .  S
C304        C305   1.404       .  A
C305        C306   1.394       .  A
C305        H309   1.084       .  S
C306        H310   1.082       .  S
C311        C312   1.411       .  A
C311        C316   1.411       .  A
C311        H321   1.083       .  S
C312        C317   1.495       .  S
C312        C313   1.404       .  A
C313        C314   1.396       .  A
C313        H318   1.083       .  S
C314        C315   1.407       .  A
C314        H319   1.084       .  S
C315        C316   1.406       .  A
C316        H320   1.083       .  S
C317        C322   1.411       .  A
C317        C326   1.404       .  A
C322        C323   1.411       .  A
C322        H327   1.083       .  S
C323        C324   1.406       .  A
C323        H328   1.083       .  S
C324        C325   1.405       .  A
C325        C326   1.397       .  A
C325        H329   1.084       .  S
C326        H330   1.083       .  S
C331        C332   1.410       .  A
C331        C336   1.409       .  A
C331        H341   1.082       .  S
C332        C337   1.478       .  S
C332        C333   1.395       .  A
C333        C334   1.390       .  A
C333        H338   1.084       .  S
C334        C335   1.411       .  A
C334        H339   1.083       .  S
C335        C336   1.405       .  A
C336        H340   1.083       .  S
C337        C342   1.395       .  A
C337        C346   1.410       .  A
C342        C343   1.391       .  A
C342        H347   1.084       .  S
C343        C344   1.412       .  A
C343        H348   1.082       .  S
C344        C345   1.404       .  A
C345        C346   1.407       .  A
C345        H349   1.083       .  S
C346        H350   1.083       .  S
C351        C352   1.402       .  A
C351        C356   1.395       .  A
C351        H361   1.083       .  S
C352        C357   1.491       .  S
C352        C353   1.412       .  A
C353        C354   1.408       .  A
C353        H358   1.083       .  S
C354        C355   1.405       .  A
C354        H359   1.082       .  S
C355        C356   1.407       .  A
C356        H360   1.084       .  S
C357        C362   1.401       .  A
C357        C366   1.413       .  A
C362        C363   1.396       .  A
C362        H367   1.083       .  S
C363        C364   1.407       .  A
C363        H368   1.084       .  S
C364        C365   1.401       .  A
C365        C366   1.407       .  A
C365        H369   1.083       .  S
C366        H370   1.083       .  S
C371        C372   1.411       .  A
C371        C376   1.406       .  A
C371        H381   1.083       .  S
C372        C377   1.482       .  S
C372        C373   1.398       .  A
C373        C374   1.393       .  A
C373        H378   1.083       .  S
C374        C375   1.408       .  A
C374        H379   1.084       .  S
C375        C376   1.401       .  A
C376        H380   1.083       .  S
C377        C382   1.399       .  A
C377        C386   1.409       .  A
C382        C383   1.393       .  A
C382        H387   1.083       .  S
C383        C384   1.407       .  A
C383        H388   1.084       .  S
C384        C385   1.405       .  A
C385        C386   1.406       .  A
C385        H389   1.083       .  S
C386        H390   1.083       .  S
C391        C392   1.414       .  A
C391        C396   1.406       .  A
C391        H401   1.082       .  S
C392        C397   1.494       .  S
C392        C393   1.403       .  A
C393        C394   1.394       .  A
C393        H398   1.082       .  S
C394        C395   1.404       .  A
C394        H399   1.084       .  S
C395        C396   1.401       .  A
C396        H400   1.083       .  S
C397        C402   1.404       .  A
C397        C406   1.412       .  A
C402        C403   1.396       .  A
C402        H407   1.082       .  S
C403        C404   1.406       .  A
C403        H408   1.084       .  S
C404        C405   1.403       .  A
C405        C406   1.405       .  A
C405        H409   1.083       .  S
C406        H410   1.082       .  S
C411        C412   1.413       .  A
C411        C416   1.412       .  A
C411        H421   1.083       .  S
C412        C417   1.500       .  S
C412        C413   1.406       .  A
C413        C414   1.396       .  A
C413        H418   1.082       .  S
C414        C415   1.404       .  A
C414        H419   1.084       .  S
C415        C416   1.406       .  A
C416        H420   1.083       .  S
C417        C422   1.412       .  A
C417        C426   1.407       .  A
C422        C423   1.410       .  A
C422        H427   1.082       .  S
C423        C424   1.405       .  A
C423        H428   1.083       .  S
C424        C425   1.404       .  A
C425        C426   1.396       .  A
C425        H429   1.084       .  S
C426        H430   1.083       .  S
C431        C432   1.408       .  A
C431        C436   1.394       .  A
C431        H441   1.082       .  S
C432        C437   1.500       .  S
C432        C433   1.413       .  A
C433        C434   1.408       .  A
C433        H438   1.082       .  S
C434        C435   1.404       .  A
C434        H439   1.083       .  S
C435        C436   1.402       .  A
C436        H440   1.084       .  S
C437        C442   1.408       .  A
C437        C446   1.411       .  A
C442        C443   1.398       .  A
C442        H447   1.082       .  S
C443        C444   1.405       .  A
C443        H448   1.084       .  S
C444        C445   1.405       .  A
C445        C446   1.406       .  A
C445        H449   1.082       .  S
C446        H450   1.082       .  S
C451        C452   1.409       .  A
C451        C456   1.404       .  A
C451        H461   1.082       .  S
C452        C457   1.496       .  S
C452        C453   1.409       .  A
C453        C454   1.397       .  A
C453        H458   1.083       .  S
C454        C455   1.399       .  A
C454        H459   1.084       .  S
C455        C456   1.405       .  A
C456        H460   1.083       .  S
C457        C462   1.410       .  A
C457        C466   1.409       .  A
C462        C463   1.405       .  A
C462        H467   1.082       .  S
C463        C464   1.407       .  A
C463        H468   1.083       .  S
C464        C465   1.400       .  A
C465        C466   1.395       .  A
C465        H469   1.083       .  S
C466        H470   1.083       .  S
C471        C472   1.408       .  A
C471        C476   1.400       .  A
C471        H481   1.082       .  S
C472        C477   1.495       .  S
C472        C473   1.410       .  A
C473        C474   1.399       .  A
C473        H478   1.082       .  S
C474        C475   1.399       .  A
C474        H479   1.083       .  S
C475        C476   1.403       .  A
C476        H480   1.083       .  S
C477        C482   1.410       .  A
C477        C486   1.408       .  A
C482        C483   1.403       .  A
C482        H487   1.082       .  S
C483        C484   1.405       .  A
C483        H488   1.083       .  S
C484        C485   1.401       .  A
C485        C486   1.396       .  A
C485        H489   1.083       .  S
C486        H490   1.082       .  S
C491        C492   1.409       .  A
C491        C496   1.396       .  A
C491        H501   1.082       .  S
C492        C497   1.494       .  S
C492        C493   1.409       .  A
C493        C494   1.401       .  A
C493        H498   1.083       .  S
C494        C495   1.402       .  A
C494        H499   1.083       .  S
C495        C496   1.401       .  A
C496        H500   1.084       .  S
C497        C502   1.408       .  A
C497        C506   1.410       .  A
C502        C503   1.399       .  A
C502        H507   1.082       .  S
C503        C504   1.401       .  A
C503        H508   1.081       .  S
C504        C505   1.401       .  A
C505        C506   1.397       .  A
C505        H509   1.083       .  S
C506        H510   1.082       .  S
C511        C512   1.408       .  A
C511        C516   1.393       .  A
C511        H521   1.082       .  S
C512        C517   1.482       .  S
C512        C513   1.407       .  A
C513        C514   1.391       .  A
C513        H518   1.082       .  S
C514        C515   1.400       .  A
C514        H519   1.083       .  S
C515        C516   1.403       .  A
C516        H520   1.083       .  S
C517        C522   1.405       .  A
C517        C526   1.410       .  A
C522        C523   1.390       .  A
C522        H527   1.082       .  S
C523        C524   1.403       .  A
C523        H528   1.083       .  S
C524        C525   1.398       .  A
C525        C526   1.394       .  A
C525        H529   1.083       .  S
C526        H530   1.082       .  S
C531        C532   1.407       .  A
C531        C536   1.393       .  A
C531        H541   1.082       .  S
C532        C537   1.483       .  S
C532        C533   1.406       .  A
C533        C534   1.396       .  A
C533        H538   1.083       .  S
C534        C535   1.404       .  A
C534        H539   1.083       .  S
C535        C536   1.402       .  A
C536        H540   1.084       .  S
C537        C542   1.406       .  A
C537        C546   1.408       .  A
C542        C543   1.392       .  A
C542        H547   1.083       .  S
C543        C544   1.401       .  A
C543        H548   1.083       .  S
C544        C545   1.403       .  A
C545        C546   1.397       .  A
C545        H549   1.083       .  S
C546        H550   1.082       .  S
C551        C552   1.407       .  A
C551        C556   1.392       .  A
C551        H561   1.082       .  S
C552        C557   1.486       .  S
C552        C553   1.408       .  A
C553        C554   1.398       .  A
C553        H558   1.083       .  S
C554        C555   1.403       .  A
C554        H559   1.083       .  S
C555        C556   1.401       .  A
C556        H560   1.084       .  S
C557        C562   1.407       .  A
C557        C566   1.408       .  A
C562        C563   1.391       .  A
C562        H567   1.082       .  S
C563        C564   1.401       .  A
C563        H568   1.083       .  S
C564        C565   1.404       .  A
C565        C566   1.399       .  A
C565        H569   1.083       .  S
C566        H570   1.083       .  S
C571        C572   1.406       .  A
C571        C576   1.394       .  A
C571        H581   1.083       .  S
C572        C577   1.477       .  S
C572        C573   1.405       .  A
C573        C574   1.391       .  A
C573        H578   1.083       .  S
C574        C575   1.403       .  A
C574        H579   1.084       .  S
C575        C576   1.402       .  A
C576        H580   1.083       .  S
C577        C582   1.408       .  A
C577        C586   1.404       .  A
C582        C583   1.395       .  A
C582        H587   1.082       .  S
C583        C584   1.398       .  A
C583        H588   1.083       .  S
C584        C585   1.402       .  A
C585        C586   1.390       .  A
C585        H589   1.082       .  S
C586        H590   1.083       .  S
C591        C592   1.406       .  A
C591        C596   1.393       .  A
C591        H601   1.082       .  S
C592        C597   1.493       .  S
C592        C593   1.410       .  A
C593        C594   1.405       .  A
C593        H598   1.083       .  S
C594        C595   1.404       .  A
C594        H599   1.083       .  S
C595        C596   1.402       .  A
C596        H600   1.084       .  S
C597        C602   1.407       .  A
C597        C606   1.410       .  A
C602        C603   1.396       .  A
C602        H607   1.082       .  S
C603        C604   1.404       .  A
C603        H608   1.083       .  S
C604        C605   1.403       .  A
C605        C606   1.403       .  A
C605        H609   1.083       .  S
C606        H610   1.083       .  S
C611        C612   1.411       .  A
C611        C616   1.400       .  A
C611        H621   1.081       .  S
C612        C617   1.501       .  S
C612        C613   1.412       .  A
C613        C614   1.397       .  A
C613        H618   1.081       .  S
C614        C615   1.402       .  A
C614        H619   1.083       .  S
C615        C616   1.401       .  A
C616        H620   1.082       .  S
C617        C622   1.412       .  A
C617        C626   1.412       .  A
C622        C623   1.399       .  A
C622        H627   1.081       .  S
C623        C624   1.400       .  A
C623        H628   1.084       .  S
C624        C625   1.399       .  A
C625        C626   1.398       .  A
C625        H629   1.083       .  S
C626        H630   1.081       .  S
C631        C632   1.408       .  A
C631        C636   1.398       .  A
C631        H641   1.082       .  S
C632        C637   1.493       .  S
C632        C633   1.410       .  A
C633        C634   1.398       .  A
C633        H638   1.082       .  S
C634        C635   1.399       .  A
C634        H639   1.084       .  S
C635        C636   1.402       .  A
C636        H640   1.083       .  S
C637        C642   1.409       .  A
C637        C646   1.409       .  A
C642        C643   1.400       .  A
C642        H647   1.082       .  S
C643        C644   1.404       .  A
C643        H648   1.083       .  S
C644        C645   1.401       .  A
C645        C646   1.395       .  A
C645        H649   1.083       .  S
C646        H650   1.082       .  S
C651        C652   1.411       .  A
C651        C656   1.406       .  A
C651        H661   1.083       .  S
C652        C657   1.491       .  S
C652        C653   1.404       .  A
C653        C654   1.393       .  A
C653        H658   1.083       .  S
C654        C655   1.405       .  A
C654        H659   1.084       .  S
C655        C656   1.404       .  A
C656        H660   1.083       .  S
C657        C662   1.409       .  A
C657        C666   1.406       .  A
C662        C663   1.406       .  A
C662        H667   1.083       .  S
C663        C664   1.405       .  A
C663        H668   1.083       .  S
C664        C665   1.402       .  A
C665        C666   1.393       .  A
C665        H669   1.084       .  S
C666        H670   1.083       .  S
C671        C672   1.405       .  A
C671        C676   1.391       .  A
C671        H681   1.082       .  S
C672        C677   1.484       .  S
C672        C673   1.408       .  A
C673        C674   1.398       .  A
C673        H678   1.081       .  S
C674        C675   1.403       .  A
C674        H679   1.083       .  S
C675        C676   1.402       .  A
C676        H680   1.083       .  S
C677        C682   1.407       .  A
C677        C686   1.408       .  A
C682        C683   1.391       .  A
C682        H687   1.082       .  S
C683        C684   1.400       .  A
C683        H688   1.084       .  S
C684        C685   1.403       .  A
C685        C686   1.397       .  A
C685        H689   1.083       .  S
C686        H690   1.083       .  S
C691        C692   1.406       .  A
C691        C696   1.391       .  A
C691        H701   1.081       .  S
C692        C697   1.485       .  S
C692        C693   1.409       .  A
C693        C694   1.397       .  A
C693        H698   1.083       .  S
C694        C695   1.402       .  A
C694        H699   1.083       .  S
C695        C696   1.401       .  A
C696        H700   1.084       .  S
C697        C702   1.407       .  A
C697        C706   1.407       .  A
C702        C703   1.394       .  A
C702        H707   1.083       .  S
C703        C704   1.403       .  A
C703        H708   1.084       .  S
C704        C705   1.401       .  A
C705        C706   1.395       .  A
C705        H709   1.083       .  S
C706        H710   1.082       .  S
C711        C712   1.408       .  A
C711        C716   1.397       .  A
C711        H721   1.081       .  S
C712        C717   1.485       .  S
C712        C713   1.406       .  A
C713        C714   1.391       .  A
C713        H718   1.082       .  S
C714        C715   1.402       .  A
C714        H719   1.083       .  S
C715        C716   1.403       .  A
C716        H720   1.083       .  S
C717        C722   1.407       .  A
C717        C726   1.408       .  A
C722        C723   1.393       .  A
C722        H727   1.082       .  S
C723        C724   1.401       .  A
C723        H728   1.084       .  S
C724        C725   1.402       .  A
C725        C726   1.396       .  A
C725        H729   1.083       .  S
C726        H730   1.083       .  S
C731        C732   1.408       .  A
C731        C736   1.392       .  A
C731        H741   1.082       .  S
C732        C737   1.486       .  S
C732        C733   1.408       .  A
C733        C734   1.395       .  A
C733        H738   1.082       .  S
C734        C735   1.401       .  A
C734        H739   1.083       .  S
C735        C736   1.400       .  A
C736        H740   1.083       .  S
C737        C742   1.409       .  A
C737        C746   1.406       .  A
C742        C743   1.397       .  A
C742        H747   1.082       .  S
C743        C744   1.402       .  A
C743        H748   1.083       .  S
C744        C745   1.402       .  A
C745        C746   1.391       .  A
C745        H749   1.084       .  S
C746        H750   1.081       .  S
