geometry optimzed in LAMMPS
_audit_creation_date              2020-11-30 
_audit_creation_method            'lammps2cif' 
_symmetry_space_group_name_H-M    'P1' 
_symmetry_Int_Tables_number       1 
_symmetry_cell_setting            triclinic 
loop_ 
_symmetry_equiv_pos_as_xyz 
  x,y,z 
_cell_length_a                    50.92676383818496 
_cell_length_b                    35.36140603600826 
_cell_length_c                    49.89770103985413 
_cell_angle_alpha                 90.67585710307546 
_cell_angle_beta                  90.67970006207024 
_cell_angle_gamma                 89.91392436709434 
loop_ 
_atom_site_label 
_atom_site_type_symbol 
_atom_site_fract_x 
_atom_site_fract_y 
_atom_site_fract_z 
_atom_site_charge 
N1          N  0.88582010  0.82760017  0.07187561    -0.26840
N2          N  0.90245667  0.80611678  0.05841235    -0.34700
C3          C  0.92182155  0.82786385  0.04911385     0.01500
C4          C  0.91749214  0.86481608  0.05748576     0.07520
C5          C  0.89425097  0.86370482  0.07157585    -0.05580
H6          H  0.93891392  0.81707712  0.03884008     0.08190
H7          H  0.88532704  0.88677007  0.08262920     0.09390
Cu8        Cu  0.90154534  0.74751589  0.05811879     0.44170
Cu9        Cu  0.85493031  0.80521562  0.09321461     0.41990
Cu10       Cu  0.85471770  0.70225141  0.10083192     0.43880
N11         N  0.90198065  0.69013707  0.06612931    -0.34230
N12         N  0.88536867  0.67349515  0.08238780    -0.28480
C13         C  0.89269754  0.63715114  0.08547032    -0.04580
C14         C  0.91470305  0.63068429  0.07007920     0.07630
C15         C  0.92018380  0.66489356  0.05832609     0.01430
H16         H  0.88328343  0.61734415  0.09862161     0.09080
H17         H  0.93693666  0.67142903  0.04608495     0.08160
N18         N  0.82617048  0.73834062  0.11621226    -0.35680
N19         N  0.82635811  0.77549467  0.11342087    -0.27860
C20         C  0.80525743  0.79031059  0.12562901    -0.03100
C21         C  0.79083531  0.76113174  0.13639506     0.05510
C22         C  0.80487206  0.72861235  0.13026965     0.03600
H23         H  0.80095466  0.82023247  0.12684588     0.08710
H24         H  0.79991093  0.69993552  0.13553278     0.07540
N25         N  0.10709280  0.83177586  0.06381058    -0.26840
N26         N  0.08828291  0.81061473  0.05317149    -0.34580
C27         C  0.07059991  0.83287010  0.04097229     0.01500
C28         C  0.07843672  0.87015937  0.04410284     0.07520
C29         C  0.10187651  0.86830331  0.05859273    -0.05580
H30         H  0.05242899  0.82274142  0.03203074     0.08190
H31         H  0.11386691  0.89161255  0.06568445     0.09390
Cu32       Cu  0.08591361  0.75302766  0.05812328     0.44170
Cu33       Cu  0.13694362  0.80921335  0.08736303     0.41990
Cu34       Cu  0.13582436  0.70584487  0.09679783     0.43880
N35         N  0.08606602  0.69572880  0.06491634    -0.34230
N36         N  0.10441744  0.67770359  0.07865131    -0.28480
C37         C  0.09811817  0.64072575  0.07943955    -0.04580
C38         C  0.07473806  0.63535259  0.06529074     0.07630
C39         C  0.06760411  0.67107975  0.05679081     0.01430
H40         H  0.10946535  0.61953416  0.08992116     0.09080
H41         H  0.04981364  0.67901125  0.04620866     0.08160
N42         N  0.16328852  0.74233719  0.11417562    -0.35680
N43         N  0.16343467  0.77945772  0.11104563    -0.27860
C44         C  0.18359406  0.79429390  0.12525915    -0.03100
C45         C  0.19673338  0.76522559  0.13804531     0.05510
C46         C  0.18346719  0.73266056  0.13034606     0.03600
H47         H  0.18863715  0.82399176  0.12576748     0.08710
H48         H  0.18814434  0.70399729  0.13606468     0.07540
N49         N  0.88903953  0.33469345  0.01068095    -0.26840
N50         N  0.90279330  0.31456757  0.02801141    -0.34700
C51         C  0.91898901  0.33777337  0.04193689     0.01500
C52         C  0.91512400  0.37425565  0.03291374     0.07520
C53         C  0.89621461  0.37118008  0.01288733    -0.05580
H54         H  0.93378264  0.32847442  0.05614486     0.08190
H55         H  0.88901723  0.39353317  0.00012264     0.09390
Cu56       Cu  0.90170732  0.25592972  0.02794691     0.44170
Cu57       Cu  0.86229651  0.31046415  0.98417115     0.41990
Cu58       Cu  0.86257269  0.20747304  0.47651798     0.43880
N59         N  0.90530673  0.19905540  0.01798962    -0.34230
N60         N  0.89301557  0.18176403  0.99791502    -0.28480
C61         C  0.90321094  0.14673150  0.99498793    -0.04580
C62         C  0.92292946  0.14153369  0.01427189     0.07630
C63         C  0.92294574  0.17542007  0.02877116     0.01430
H64         H  0.89680202  0.12676141  0.47971518     0.09080
H65         H  0.93474170  0.18336602  0.04597036     0.08160
N66         N  0.83285880  0.24258515  0.46187121    -0.35680
N67         N  0.83345583  0.27991039  0.46405660    -0.27860
C68         C  0.81151378  0.29433837  0.45299365    -0.03100
C69         C  0.79607281  0.26478692  0.44377706     0.05510
C70         C  0.81021546  0.23231916  0.44958204     0.03600
H71         H  0.80685139  0.32416232  0.45230114     0.08710
H72         H  0.80449067  0.20344827  0.44516959     0.07540
N73         N  0.09889233  0.32602149  0.01236650    -0.26840
N74         N  0.07836829  0.30486786  0.01787659    -0.34700
C75         C  0.06016025  0.32616454  0.03004993     0.01500
C76         C  0.06976679  0.36260623  0.03292578     0.07520
C77         C  0.09430941  0.36156599  0.02110646    -0.05580
H78         H  0.04109505  0.31584935  0.03585010     0.08190
H79         H  0.10777172  0.38491395  0.01884714     0.09390
Cu80       Cu  0.07620842  0.24780615  0.00975981     0.44170
Cu81       Cu  0.13145772  0.30457937  0.99264245     0.41990
Cu82       Cu  0.13215359  0.20158152  0.48086547     0.43880
N83         N  0.07923147  0.19009701  0.00523967    -0.34230
N84         N  0.09971379  0.17252309  0.99483017    -0.28480
C85         C  0.09556290  0.13491387  0.99560495    -0.04580
C86         C  0.07153284  0.12898988  0.00748205     0.07630
C87         C  0.06161075  0.16446492  0.01303076     0.01430
H88         H  0.10904946  0.11360342  0.48829962     0.09080
H89         H  0.04300575  0.17115438  0.02222061     0.08160
N90         N  0.16134524  0.23842360  0.46862246    -0.35680
N91         N  0.16093930  0.27549046  0.47261598    -0.27860
C92         C  0.18231683  0.29072316  0.46143735    -0.03100
C93         C  0.19709357  0.26190344  0.45017260     0.05510
C94         C  0.18307669  0.22917383  0.45493493     0.03600
H95         H  0.18674675  0.32062837  0.46146963     0.08710
H96         H  0.18800353  0.20078735  0.44842116     0.07540
C97         C  0.99571226  0.97849400  0.03442703     0.01010
C98         C  0.99535514  0.01504559  0.02480463     0.01010
C99         C  0.99662532  0.51862594  0.06433084     0.01010
C100        C  0.99653870  0.48221609  0.05455311     0.01010
N101        N  0.38208276  0.20256938  0.31762520    -0.26840
N102        N  0.40005210  0.22333488  0.30588554    -0.34700
C103        C  0.41880184  0.20067547  0.29597876     0.01500
C104        C  0.41228850  0.16379494  0.30156159     0.07520
C105        C  0.38889438  0.16583653  0.31535535    -0.05580
H106        H  0.43677158  0.21048275  0.28704288     0.08190
H107        H  0.37868807  0.14275351  0.32471020     0.09390
Cu108      Cu  0.40086423  0.28148811  0.30774140     0.44170
Cu109      Cu  0.35166038  0.22680960  0.33917881     0.41990
Cu110      Cu  0.35331854  0.33074280  0.34785959     0.43880
N111        N  0.40289382  0.33846601  0.31636133    -0.34230
N112        N  0.38574218  0.35710747  0.33118402    -0.28480
C113        C  0.39433601  0.39287159  0.33484865    -0.04580
C114        C  0.41820581  0.39638297  0.32204142     0.07630
C115        C  0.42281769  0.36147949  0.31033539     0.01430
H116        H  0.38468461  0.41406169  0.34706870     0.09080
H117        H  0.43995762  0.35293065  0.29915717     0.08160
N118        N  0.32437950  0.29558366  0.36308874    -0.35680
N119        N  0.32404551  0.25833417  0.36008853    -0.27860
C120        C  0.30307367  0.24441487  0.37274791    -0.03100
C121        C  0.28929739  0.27420546  0.38404201     0.05510
C122        C  0.30350376  0.30622314  0.37769594     0.03600
H123        H  0.29815705  0.21470845  0.37356902     0.08710
H124        H  0.29921924  0.33508337  0.38359634     0.07540
N125        N  0.60127874  0.21276411  0.32003819    -0.26840
N126        N  0.58351114  0.23432023  0.30825049    -0.34700
C127        C  0.56592520  0.21225947  0.29538130     0.01500
C128        C  0.57317484  0.17477795  0.29868762     0.07520
C129        C  0.59558991  0.17624603  0.31475528    -0.05580
H130        H  0.54863388  0.22285849  0.28514918     0.08190
H131        H  0.60671623  0.15256235  0.32242390     0.09390
Cu132      Cu  0.58360362  0.29266041  0.31060094     0.44170
Cu133      Cu  0.63151514  0.23496841  0.34346072     0.41990
Cu134      Cu  0.63507685  0.33873005  0.34885215     0.43880
N135        N  0.58629393  0.35059445  0.31550156    -0.34230
N136        N  0.60474175  0.36795663  0.32983814    -0.28480
C137        C  0.59940183  0.40532037  0.33055246    -0.04580
C138        C  0.57649078  0.41152488  0.31590654     0.07630
C139        C  0.56891523  0.37620283  0.30658721     0.01430
H140        H  0.61081404  0.42616169  0.34162833     0.09080
H141        H  0.55121828  0.36933080  0.29534658     0.08160
N142        N  0.66247278  0.30170885  0.36550357    -0.35680
N143        N  0.66074780  0.26438559  0.36405205    -0.27860
C144        C  0.68165796  0.24909356  0.37659402    -0.03100
C145        C  0.69754833  0.27807304  0.38600857     0.05510
C146        C  0.68472161  0.31105606  0.37880618     0.03600
H147        H  0.68544689  0.21907298  0.37796953     0.08710
H148        H  0.69121888  0.33972531  0.38270505     0.07540
N149        N  0.38974909  0.71419659  0.26511751    -0.26840
N150        N  0.40622319  0.73551406  0.27927430    -0.34700
C151        C  0.42467944  0.71335128  0.29045460     0.01500
C152        C  0.41974374  0.67634967  0.28272635     0.07520
C153        C  0.39731400  0.67785020  0.26684327    -0.05580
H154        H  0.44109609  0.72358863  0.30242930     0.08190
H155        H  0.38751865  0.65441595  0.25683970     0.09390
Cu156      Cu  0.40449326  0.79393651  0.28055247     0.44170
Cu157      Cu  0.35879821  0.73590603  0.24287581     0.41990
Cu158      Cu  0.35622074  0.83814505  0.23728154     0.43880
N159        N  0.40250457  0.85160430  0.27434799    -0.34230
N160        N  0.38555199  0.86776140  0.25777314    -0.28480
C161        C  0.39193026  0.90448320  0.25534770    -0.04580
C162        C  0.41355819  0.91180518  0.27160519     0.07630
C163        C  0.41987478  0.87762438  0.28313113     0.01430
H164        H  0.38247920  0.92384344  0.24163965     0.09080
H165        H  0.43706456  0.87146568  0.29526875     0.08160
N166        N  0.32897838  0.80172925  0.21951879    -0.35680
N167        N  0.33001425  0.76452033  0.22160370    -0.27860
C168        C  0.30957857  0.74919455  0.20811641    -0.03100
C169        C  0.29503206  0.77809573  0.19674705     0.05510
C170        C  0.30778193  0.81104791  0.20464496     0.03600
H171        H  0.30541818  0.71923374  0.20705584     0.08710
H172        H  0.30209528  0.83970609  0.19990248     0.07540
C173        C  0.49444486  0.52045889  0.31044690     0.01010
C174        C  0.49364079  0.55924619  0.30678323     0.01010
N175        N  0.60231076  0.70856675  0.26505387    -0.26840
N176        N  0.58295488  0.72974059  0.27428355    -0.34700
C177        C  0.56405686  0.70733045  0.28382816     0.01500
C178        C  0.57196698  0.67025104  0.28054476     0.07520
C179        C  0.59631366  0.67189558  0.26860865    -0.05580
H180        H  0.54551862  0.71724095  0.29163792     0.08190
H181        H  0.60814933  0.64828251  0.26186483     0.09390
Cu182      Cu  0.58247226  0.78787416  0.27166214     0.44170
Cu183      Cu  0.63433872  0.73167707  0.24586538     0.41990
Cu184      Cu  0.63540971  0.83551187  0.23840227     0.43880
N185        N  0.58475312  0.84573426  0.26769181    -0.34230
N186        N  0.60390592  0.86386438  0.25570424    -0.28480
C187        C  0.59867608  0.90127956  0.25652922    -0.04580
C188        C  0.57525314  0.90675447  0.27002523     0.07630
C189        C  0.56693294  0.87076502  0.27636582     0.01430
H190        H  0.61084757  0.92277239  0.24773751     0.09080
H191        H  0.54878188  0.86306162  0.28592414     0.08160
N192        N  0.66370604  0.79863758  0.22333944    -0.35680
N193        N  0.66324520  0.76146525  0.22612066    -0.27860
C194        C  0.68419592  0.74633372  0.21382498    -0.03100
C195        C  0.69878984  0.77527631  0.20299973     0.05510
C196        C  0.68502806  0.80800758  0.20919647     0.03600
H197        H  0.68821962  0.71634004  0.21249213     0.08710
H198        H  0.69014709  0.83659044  0.20384057     0.07540
C199        C  0.49611440  0.05958604  0.27971651     0.01010
C200        C  0.49640226  0.02199083  0.27287479     0.01010
C201        C  0.55993098  0.96994210  0.25426657    -0.11820
C202        C  0.56003376  0.94211800  0.27413139     0.05180
C203        C  0.54263569  0.94578924  0.29580670    -0.07110
C204        C  0.52291374  0.97315701  0.29473570    -0.07850
C205        C  0.52110980  0.99913138  0.27374243    -0.02400
C206        C  0.54088424  0.99900574  0.25382784     0.04410
N207        N  0.54153070  0.02613436  0.23245684     0.66920
H208        H  0.57366540  0.96749713  0.23792844     0.15820
H209        H  0.50845569  0.97405156  0.31049665     0.15530
N210        N  0.54475816  0.92212226  0.31901424     0.74620
O211        O  0.56229986  0.03069288  0.21930209    -0.38830
O212        O  0.52141788  0.04473027  0.22580949    -0.38770
O213        O  0.56708095  0.91303166  0.32817097    -0.39470
O214        O  0.52461815  0.91423449  0.33236255    -0.39540
C215        C  0.51955431  0.59544413  0.27331441    -0.11820
C216        C  0.51796646  0.58174332  0.29969847     0.05180
C217        C  0.53751071  0.59399432  0.31855811    -0.07110
C218        C  0.55631944  0.62072902  0.31081959    -0.07850
C219        C  0.55577673  0.63664761  0.28532135    -0.02400
C220        C  0.53731042  0.62365714  0.26614850     0.04410
N221        N  0.53509275  0.64021990  0.23995433     0.66920
H222        H  0.50613778  0.58534649  0.25801342     0.15820
H223        H  0.57050270  0.63115879  0.32549263     0.15530
N224        N  0.53866503  0.58099907  0.34567131     0.74620
O225        O  0.55517510  0.65141063  0.22779227    -0.38830
O226        O  0.51300409  0.64204204  0.22825576    -0.38770
O227        O  0.56066891  0.57600130  0.35703807    -0.39470
O228        O  0.51822589  0.57931548  0.35951639    -0.39540
C229        C  0.45450290  0.99699304  0.29220898    -0.11820
C230        C  0.47186572  0.99878543  0.27052611     0.05180
C231        C  0.46808524  0.97371440  0.24855203    -0.07110
C232        C  0.44776660  0.94730751  0.24884376    -0.07850
C233        C  0.43098920  0.94487284  0.27070550    -0.02400
C234        C  0.43379288  0.97059300  0.29249743     0.04410
N235        N  0.41632355  0.96990089  0.31506495     0.66920
H236        H  0.45777151  0.01526949  0.30946879     0.15820
H237        H  0.44578285  0.92732867  0.23229262     0.15530
N238        N  0.48544605  0.97341234  0.22623961     0.74620
O239        O  0.42260903  0.98640772  0.33677933    -0.38830
O240        O  0.39360595  0.95589459  0.31277162    -0.38770
O241        O  0.49954544  0.94464480  0.22191263    -0.39470
O242        O  0.48181593  0.99676966  0.20765083    -0.39540
C243        C  0.44501452  0.63872287  0.31561153    -0.11820
C244        C  0.43607831  0.64307510  0.28913917     0.05180
C245        C  0.44283750  0.61568237  0.26957735    -0.07110
C246        C  0.45921240  0.58557245  0.27684118    -0.07850
C247        C  0.46940363  0.58218229  0.30302774    -0.02400
C248        C  0.46116408  0.60824867  0.32289008     0.04410
N249        N  0.46744052  0.60266531  0.35065501     0.66920
H250        H  0.43885863  0.65880758  0.33085989     0.15820
H251        H  0.46492838  0.56531184  0.26157809     0.15530
N252        N  0.43507369  0.61934114  0.24194804     0.74620
O253        O  0.47008909  0.63073124  0.36632982    -0.38830
O254        O  0.46608551  0.56992236  0.36037437    -0.38770
O255        O  0.43823672  0.65033889  0.23011973    -0.39470
O256        O  0.42913963  0.59026648  0.22826127    -0.39540
C257        C  0.55743184  0.10933088  0.30701289    -0.11820
C258        C  0.55791668  0.14087366  0.29014070     0.05180
C259        C  0.54125704  0.14132136  0.26727332    -0.07110
C260        C  0.52253992  0.11273550  0.26377113    -0.07850
C261        C  0.52051030  0.08280335  0.28180939    -0.02400
C262        C  0.53875072  0.08043391  0.30338881     0.04410
N263        N  0.53756594  0.05096524  0.32293529     0.66920
H264        H  0.57015627  0.10865213  0.32454714     0.15820
H265        H  0.50879604  0.11439532  0.24708700     0.15530
N266        N  0.54296706  0.17044897  0.24749654     0.74620
O267        O  0.55851984  0.03808037  0.33309197    -0.38830
O268        O  0.51587399  0.04110194  0.33259460    -0.38770
O269        O  0.56511783  0.18195822  0.23997509    -0.39470
O270        O  0.52258836  0.18143352  0.23517953    -0.39540
C271        C  0.53525610  0.49763534  0.33291831    -0.11820
C272        C  0.52121820  0.50253461  0.30872892     0.05180
C273        C  0.52874577  0.48124055  0.28576112    -0.07110
C274        C  0.54860212  0.45378541  0.28851310    -0.07850
C275        C  0.56064093  0.44645960  0.31335296    -0.02400
C276        C  0.55450477  0.46955640  0.33566683     0.04410
N277        N  0.56448265  0.46153253  0.36202984     0.66920
H278        H  0.52811453  0.51098264  0.35099772     0.15820
H279        H  0.55376563  0.43627078  0.27140904     0.15530
N280        N  0.51520111  0.48460545  0.26028458     0.74620
O281        O  0.57099539  0.48844059  0.37756333    -0.38830
O282        O  0.56177065  0.42888930  0.37158901    -0.38770
O283        O  0.50097706  0.51288477  0.25519993    -0.39470
O284        O  0.51851025  0.46008649  0.24202256    -0.39540
C285        C  0.42931302  0.10988050  0.27514397    -0.11820
C286        C  0.43018049  0.13136567  0.29891543     0.05180
C287        C  0.45127621  0.12664294  0.31715071    -0.07110
C288        C  0.47140758  0.10138417  0.31059083    -0.07850
C289        C  0.47157129  0.08123581  0.28613009    -0.02400
C290        C  0.44997705  0.08536044  0.26822846     0.04410
N291        N  0.44958661  0.06774273  0.24220570     0.66920
H292        H  0.41347711  0.11456821  0.26084711     0.15820
H293        H  0.48773032  0.09854463  0.32446814     0.15530
N294        N  0.45336501  0.14857639  0.34162952     0.74620
O295        O  0.42833042  0.05484709  0.23258726    -0.38830
O296        O  0.46912888  0.07079573  0.22710916    -0.38770
O297        O  0.43312236  0.15760630  0.35458526    -0.39470
O298        O  0.47565346  0.15621543  0.35164491    -0.39540
C299        C  0.42694016  0.46466997  0.31595879    -0.11820
C300        C  0.43632534  0.42899240  0.32251735     0.05180
C301        C  0.46317157  0.42452520  0.32788116    -0.07110
C302        C  0.47998504  0.45533561  0.32503373    -0.07850
C303        C  0.47182644  0.49187232  0.31626116    -0.02400
C304        C  0.44375903  0.49587692  0.31278611     0.04410
N305        N  0.43058518  0.53013094  0.30649371     0.66920
H306        H  0.40601195  0.46830368  0.31244377     0.15820
H307        H  0.50010318  0.44918162  0.33012883     0.15530
N308        N  0.47382499  0.38909154  0.33690443     0.74620
O309        O  0.41901816  0.53198058  0.28401242    -0.38830
O310        O  0.42130804  0.54920611  0.32572106    -0.38770
O311        O  0.49625126  0.37838586  0.32934406    -0.39470
O312        O  0.46230487  0.37062700  0.35478370    -0.39540
C313        C  0.26378690  0.24240221  0.41929279    -0.11820
C314        C  0.26538264  0.27163890  0.40058759     0.05180
C315        C  0.24464409  0.29819475  0.39875164    -0.07110
C316        C  0.22318298  0.29515792  0.41602151    -0.07850
C317        C  0.22148816  0.26569831  0.43453230    -0.02400
C318        C  0.24231752  0.23933388  0.43652731     0.04410
N319        N  0.24268369  0.21056044  0.45667429     0.66920
H320        H  0.27991203  0.22256079  0.42120742     0.15820
H321        H  0.20700883  0.31490681  0.41404815     0.15530
N322        N  0.24417145  0.32684360  0.37853461     0.74620
O323        O  0.25357672  0.17910437  0.45201255    -0.38830
O324        O  0.23550109  0.21825787  0.48025205    -0.38770
O325        O  0.25050683  0.31872048  0.35476407    -0.39470
O326        O  0.23371437  0.35855617  0.38336709    -0.39540
C327        C  0.04586523  0.07544850  0.48985535    -0.11820
C328        C  0.05786832  0.09314272  0.01204366     0.05180
C329        C  0.05344982  0.07917168  0.03809714    -0.07110
C330        C  0.03503051  0.05009232  0.04103864    -0.07850
C331        C  0.02091324  0.03477700  0.01908593    -0.02400
C332        C  0.02761482  0.04622708  0.49304553     0.04410
N333        N  0.01601503  0.02880785  0.46973960     0.66920
H334        H  0.04992026  0.08559377  0.46991404     0.15820
H335        H  0.02952255  0.04227346  0.06106396     0.15530
N336        N  0.06652704  0.09428183  0.06181726     0.74620
O337        O  0.01078168  0.04835095  0.44933897    -0.38830
O338        O  0.01591908  0.99325294  0.46757913    -0.38770
O339        O  0.07844332  0.12552654  0.06164914    -0.39470
O340        O  0.06642787  0.07587302  0.08335664    -0.39540
C341        C  0.01866343  0.42294830  0.06760365    -0.11820
C342        C  0.02034527  0.45694131  0.05331174     0.05180
C343        C  0.04206341  0.46168006  0.03611896    -0.07110
C344        C  0.05917711  0.43123902  0.03142363    -0.07850
C345        C  0.05532331  0.39601289  0.04336988    -0.02400
C346        C  0.03574694  0.39263082  0.06301193     0.04410
N347        N  0.03277041  0.35879057  0.07838459     0.66920
H348        H  0.00323697  0.41949816  0.08212282     0.15820
H349        H  0.07460531  0.43463990  0.01688222     0.15530
N350        N  0.04718059  0.49622848  0.02265830     0.74620
O351        O  0.05272404  0.34200954  0.08769107    -0.38830
O352        O  0.01021817  0.34802565  0.08525635    -0.38770
O353        O  0.06828517  0.51353363  0.02808549    -0.39470
O354        O  0.03579630  0.50257197  0.00060619    -0.39540
C355        C  0.76859961  0.29229596  0.40785726    -0.11820
C356        C  0.77042946  0.26798756  0.42980545     0.05180
C357        C  0.74817085  0.24688349  0.43734919    -0.07110
C358        C  0.72488873  0.24994354  0.42208368    -0.07850
C359        C  0.72309999  0.27427684  0.40011231    -0.02400
C360        C  0.74537039  0.29533380  0.39263470     0.04410
N361        N  0.74526958  0.31818015  0.36895468     0.66920
H362        H  0.78581468  0.30792904  0.40186729     0.15820
H363        H  0.70763250  0.23438769  0.42803531     0.15530
N364        N  0.74832175  0.22404135  0.46106509     0.74620
O365        O  0.75946786  0.34736507  0.36802568    -0.38830
O366        O  0.73414059  0.30642837  0.34770450    -0.38770
O367        O  0.76069743  0.23480017  0.48185756    -0.39470
O368        O  0.73316429  0.19593987  0.46257718    -0.39540
C369        C  0.93587232  0.07414055  0.00296659    -0.11820
C370        C  0.94031656  0.10755647  0.01816416     0.05180
C371        C  0.96137978  0.10748766  0.03698721    -0.07110
C372        C  0.97550460  0.07438358  0.04152024    -0.07850
C373        C  0.97281281  0.04231555  0.02488089    -0.02400
C374        C  0.95253597  0.04237229  0.00526791     0.04410
N375        N  0.94813920  0.01046842  0.98792360     0.66920
H376        H  0.92002533  0.07289729  0.98836147     0.15820
H377        H  0.99060552  0.07523597  0.05688678     0.15530
N378        N  0.97138538  0.14145988  0.04913252     0.74620
O379        O  0.92668411  0.99281004  0.98918916    -0.38830
O380        O  0.96179104  0.00671029  0.46716196    -0.38770
O381        O  0.97576830  0.14272405  0.07408229    -0.39470
O382        O  0.98172700  0.16604682  0.53446237    -0.39540
C383        C  0.95550960  0.44971454  0.06927702    -0.11820
C384        C  0.97149686  0.46179059  0.04830496     0.05180
C385        C  0.96652614  0.44818850  0.02202535    -0.07110
C386        C  0.94694939  0.42113391  0.01751237    -0.07850
C387        C  0.93215097  0.40713457  0.03864646    -0.02400
C388        C  0.93578364  0.42234503  0.06482257     0.04410
N389        N  0.92000600  0.41018803  0.08692404     0.66920
H390        H  0.95939805  0.46032102  0.08938849     0.15820
H391        H  0.94390231  0.40985840  0.99741946     0.15530
N392        N  0.98154559  0.46114096  0.99980816     0.74620
O393        O  0.92810053  0.41486818  0.11074793    -0.38830
O394        O  0.89696512  0.39803970  0.08297915    -0.38770
O395        O  0.98894140  0.43804755  0.98193691    -0.39470
O396        O  0.98376816  0.49613452  0.99578787    -0.39540
C397        C  0.25009889  0.80096406  0.18588918    -0.11820
C398        C  0.27025080  0.77472101  0.18102817     0.05180
C399        C  0.26581020  0.74484503  0.16240546    -0.07110
C400        C  0.24119396  0.74158843  0.14965740    -0.07850
C401        C  0.22113554  0.76798865  0.15436558    -0.02400
C402        C  0.22548054  0.79774641  0.17309046     0.04410
N403        N  0.20488812  0.82367530  0.18036852     0.66920
H404        H  0.25318263  0.82328403  0.20063817     0.15820
H405        H  0.23812438  0.71928898  0.13488333     0.15530
N406        N  0.28635937  0.71897410  0.15498544     0.74620
O407        O  0.18178447  0.81182474  0.18365045    -0.38830
O408        O  0.21038193  0.85729067  0.18712459    -0.38770
O409        O  0.28094785  0.68495510  0.14931782    -0.39470
O410        O  0.30911216  0.73116210  0.15026202    -0.39540
C411        C  0.04433439  0.90079295  0.01573154    -0.11820
C412        C  0.06197271  0.90356334  0.03751531     0.05180
C413        C  0.06053990  0.93536048  0.05467467    -0.07110
C414        C  0.04005156  0.96121071  0.05154444    -0.07850
C415        C  0.02104499  0.95708556  0.03106492    -0.02400
C416        C  0.02351905  0.92663130  0.01227541     0.04410
N417        N  0.00420014  0.91911274  0.49132085     0.66920
H418        H  0.04578377  0.87661675  0.00232936     0.15820
H419        H  0.03739089  0.98209282  0.06719838     0.15530
N420        N  0.07765796  0.93961879  0.07738280     0.74620
O421        O  0.00800609  0.89298936  0.47432312    -0.38830
O422        O  0.98304344  0.93757413  0.98975596    -0.38770
O423        O  0.09609322  0.96338524  0.07675932    -0.39470
O424        O  0.07152021  0.92505243  0.09940378    -0.39540
C425        C  0.02168267  0.56764318  0.04225425    -0.11820
C426        C  0.02072233  0.54233504  0.06366429     0.05180
C427        C  0.04032600  0.54435686  0.08418188    -0.07110
C428        C  0.05883967  0.57401656  0.08332400    -0.07850
C429        C  0.05867442  0.60049961  0.06252831    -0.02400
C430        C  0.04093617  0.59552112  0.04081838     0.04410
N431        N  0.04252119  0.61779625  0.01695222     0.66920
H432        H  0.00725448  0.56520688  0.02616276     0.15820
H433        H  0.07282017  0.57754158  0.09966621     0.15530
N434        N  0.04132929  0.51845565  0.10639020     0.74620
O435        O  0.06461206  0.62517041  0.00706003    -0.38830
O436        O  0.02197847  0.62563064  0.00371088    -0.38770
O437        O  0.05720460  0.52406289  0.12566398    -0.39470
O438        O  0.02734961  0.48908461  0.10661544    -0.39540
C439        C  0.76384108  0.74067652  0.17471462    -0.11820
C440        C  0.76657702  0.76420594  0.15246641     0.05180
C441        C  0.74691555  0.79148771  0.14701764    -0.07110
C442        C  0.72558986  0.79528158  0.16442777    -0.07850
C443        C  0.72289926  0.77184507  0.18673168    -0.02400
C444        C  0.74249263  0.74442970  0.19210221     0.04410
N445        N  0.74190030  0.72168425  0.21577422     0.66920
H446        H  0.77910347  0.72032793  0.17935044     0.15820
H447        H  0.71032716  0.81563314  0.15979938     0.15530
N448        N  0.74743749  0.81406845  0.12325949     0.74620
O449        O  0.75020908  0.68803453  0.21501053    -0.38830
O450        O  0.73671936  0.73665066  0.23819769    -0.38770
O451        O  0.75278901  0.79900625  0.10091058    -0.39470
O452        O  0.73891348  0.84761125  0.12386206    -0.39540
C453        C  0.92814634  0.93326398  0.05092155    -0.11820
C454        C  0.93654384  0.89635494  0.05644855     0.05180
C455        C  0.96330232  0.89017060  0.06196145    -0.07110
C456        C  0.98116292  0.91909695  0.05745638    -0.07850
C457        C  0.97370591  0.95490263  0.04723607    -0.02400
C458        C  0.94629552  0.96324287  0.04834368     0.04410
N459        N  0.93686592  0.00054964  0.05410520     0.66920
H460        H  0.90726182  0.93916231  0.05017891     0.15820
H461        H  0.00142175  0.91260256  0.06205663     0.15530
N462        N  0.97274345  0.85517441  0.07294394     0.74620
O463        O  0.91440097  0.01044634  0.04575560    -0.38830
O464        O  0.94715129  0.01873863  0.07344297    -0.38770
O465        O  0.99474184  0.84205185  0.06597328    -0.39470
O466        O  0.96108510  0.84038849  0.09239196    -0.39540
C467        C  0.94980344  0.59350181  0.09125145    -0.11820
C468        C  0.93192385  0.59718760  0.06995053     0.05180
C469        C  0.93263468  0.57100982  0.04826111    -0.07110
C470        C  0.95301720  0.54406567  0.04760006    -0.07850
C471        C  0.97178318  0.54118417  0.06843835    -0.02400
C472        C  0.96928914  0.56553845  0.09097061     0.04410
N473        N  0.98657724  0.56253096  0.11367163     0.66920
H474        H  0.94888025  0.61304538  0.10811347     0.15820
H475        H  0.95493446  0.52670410  0.02989483     0.15530
N476        N  0.91330141  0.57104873  0.02678571     0.74620
O477        O  0.99728789  0.59181004  0.12351988    -0.38830
O478        O  0.98700807  0.53231476  0.12685490    -0.38770
O479        O  0.89824906  0.59890932  0.02301343    -0.39470
O480        O  0.91062420  0.54225971  0.01178324    -0.39540
N481        N  0.88582027  0.82760064  0.57187532    -0.26840
N482        N  0.90245686  0.80611710  0.55841220    -0.34700
C483        C  0.92182182  0.82786401  0.54911367     0.01500
C484        C  0.91749239  0.86481632  0.55748534     0.07520
C485        C  0.89425118  0.86370526  0.57157538    -0.05580
H486        H  0.93891421  0.81707714  0.53884000     0.08190
H487        H  0.88532724  0.88677066  0.58262855     0.09390
Cu488      Cu  0.90154543  0.74751628  0.55811878     0.44170
Cu489      Cu  0.85493039  0.80521631  0.59321436     0.41990
Cu490      Cu  0.85471795  0.70225208  0.60083210     0.43880
N491        N  0.90198081  0.69013757  0.56612944    -0.34230
N492        N  0.88536891  0.67349571  0.58238804    -0.28480
C493        C  0.89269783  0.63715174  0.58547063    -0.04580
C494        C  0.91470329  0.63068486  0.57007943     0.07630
C495        C  0.92018395  0.66489406  0.55832620     0.01430
H496        H  0.88328377  0.61734477  0.59862198     0.09080
H497        H  0.93693674  0.67142951  0.54608496     0.08160
N498        N  0.82617067  0.73834134  0.61621227    -0.35680
N499        N  0.82635822  0.77549536  0.61342074    -0.27860
C500        C  0.80525749  0.79031125  0.62562886    -0.03100
C501        C  0.79083546  0.76113240  0.63639503     0.05510
C502        C  0.80487230  0.72861305  0.63026971     0.03600
H503        H  0.80095466  0.82023311  0.62684564     0.08710
H504        H  0.79991125  0.69993623  0.63553294     0.07540
N505        N  0.10709329  0.83177594  0.56381042    -0.26840
N506        N  0.08828344  0.81061468  0.55317137    -0.34580
C507        C  0.07060038  0.83286990  0.54097215     0.01500
C508        C  0.07843709  0.87015921  0.54410262     0.07520
C509        C  0.10187691  0.86830333  0.55859248    -0.05580
H510        H  0.05242947  0.82274107  0.53203064     0.08190
H511        H  0.11386726  0.89161267  0.56568415     0.09390
Cu512      Cu  0.08591425  0.75302769  0.55812325     0.44170
Cu513      Cu  0.13694408  0.80921358  0.58736297     0.41990
Cu514      Cu  0.13582487  0.70584498  0.59679782     0.43880
N515        N  0.08606666  0.69572887  0.56491623    -0.34230
N516        N  0.10441805  0.67770364  0.57865122    -0.28480
C517        C  0.09811877  0.64072580  0.57943942    -0.04580
C518        C  0.07473869  0.63535270  0.56529057     0.07630
C519        C  0.06760476  0.67107986  0.55679065     0.01430
H520        H  0.10946592  0.61953420  0.58992106     0.09080
H521        H  0.04981430  0.67901139  0.54620849     0.08160
N522        N  0.16328888  0.74233740  0.61417568    -0.35680
N523        N  0.16343502  0.77945793  0.61104568    -0.27860
C524        C  0.18359436  0.79429413  0.62525928    -0.03100
C525        C  0.19673364  0.76522581  0.63804547     0.05510
C526        C  0.18346749  0.73266078  0.63034618     0.03600
H527        H  0.18863745  0.82399198  0.62576760     0.08710
H528        H  0.18814464  0.70399751  0.63606481     0.07540
N529        N  0.88903982  0.33469464  0.51068028    -0.26840
N530        N  0.90279432  0.31456875  0.52801011    -0.34700
C531        C  0.91898996  0.33777465  0.54193555     0.01500
C532        C  0.91512416  0.37425704  0.53291303     0.07520
C533        C  0.89621438  0.37118147  0.51288699    -0.05580
H534        H  0.93378408  0.32847576  0.55614301     0.08190
H535        H  0.88901639  0.39353469  0.50012277     0.09390
Cu536      Cu  0.90170933  0.25593098  0.52794480     0.44170
Cu537      Cu  0.86229662  0.31046486  0.48417088     0.41990
Cu538      Cu  0.86257190  0.20747278  0.97651849     0.43880
N539        N  0.90530898  0.19905678  0.51798760    -0.34230
N540        N  0.89301708  0.18176476  0.49791378    -0.28480
C541        C  0.90321219  0.14673202  0.49498708    -0.04580
C542        C  0.92293134  0.14153475  0.51427050     0.07630
C543        C  0.92294832  0.17542184  0.52876894     0.01430
H544        H  0.89680158  0.12676154  0.97971525     0.09080
H545        H  0.93474478  0.18336866  0.54596755     0.08160
N546        N  0.83285838  0.24258507  0.96187122    -0.35680
N547        N  0.83345566  0.27991029  0.96405651    -0.27860
C548        C  0.81151377  0.29433855  0.95299340    -0.03100
C549        C  0.79607264  0.26478726  0.94377681     0.05510
C550        C  0.81021504  0.23231933  0.94958196     0.03600
H551        H  0.80685155  0.32416254  0.95230087     0.08710
H552        H  0.80449003  0.20344849  0.94516964     0.07540
N553        N  0.09889263  0.32602198  0.51236688    -0.26840
N554        N  0.07836869  0.30486827  0.51787718    -0.34700
C555        C  0.06016062  0.32616496  0.53005047     0.01500
C556        C  0.06976706  0.36260675  0.53292609     0.07520
C557        C  0.09430964  0.36156654  0.52110667    -0.05580
H558        H  0.04109548  0.31584972  0.53585074     0.08190
H559        H  0.10777185  0.38491456  0.51884714     0.09390
Cu560      Cu  0.07620895  0.24780647  0.50976072     0.44170
Cu561      Cu  0.13145797  0.30457995  0.49264267     0.41990
Cu562      Cu  0.13215336  0.20158088  0.98086533     0.43880
N563        N  0.07923211  0.19009734  0.50524062    -0.34230
N564        N  0.09971429  0.17252356  0.49483073    -0.28480
C565        C  0.09556349  0.13491432  0.49560544    -0.04580
C566        C  0.07153365  0.12899015  0.50748294     0.07630
C567        C  0.06161157  0.16446513  0.51303193     0.01430
H568        H  0.10904899  0.11360286  0.98829949     0.09080
H569        H  0.04300666  0.17115447  0.52222201     0.08160
N570        N  0.16134510  0.23842295  0.96862244    -0.35680
N571        N  0.16093913  0.27548981  0.97261592    -0.27860
C572        C  0.18231667  0.29072252  0.96143734    -0.03100
C573        C  0.19709346  0.26190281  0.95017264     0.05510
C574        C  0.18307659  0.22917318  0.95493497     0.03600
H575        H  0.18674657  0.32062775  0.96146960     0.08710
H576        H  0.18800345  0.20078671  0.94842120     0.07540
C577        C  0.99571272  0.97849399  0.53442644     0.01010
C578        C  0.99535583  0.01504559  0.52480410     0.01010
C579        C  0.99662563  0.51862665  0.56433067     0.01010
C580        C  0.99653893  0.48221690  0.55455279     0.01010
N581        N  0.38208275  0.20256939  0.81762525    -0.26840
N582        N  0.40005207  0.22333494  0.80588559    -0.34700
C583        C  0.41880182  0.20067557  0.79597879     0.01500
C584        C  0.41228852  0.16379502  0.80156160     0.07520
C585        C  0.38889441  0.16583655  0.81535538    -0.05580
H586        H  0.43677154  0.21048289  0.78704289     0.08190
H587        H  0.37868812  0.14275351  0.82471023     0.09390
Cu588      Cu  0.40086412  0.28148817  0.80774146     0.44170
Cu589      Cu  0.35166037  0.22680955  0.83917890     0.41990
Cu590      Cu  0.35331845  0.33074277  0.84785978     0.43880
N591        N  0.40289366  0.33846608  0.81636140    -0.34230
N592        N  0.38574205  0.35710751  0.83118415    -0.28480
C593        C  0.39433588  0.39287163  0.83484877    -0.04580
C594        C  0.41820565  0.39638305  0.82204147     0.07630
C595        C  0.42281750  0.36147958  0.81033541     0.01430
H596        H  0.38468452  0.41406171  0.84706886     0.09080
H597        H  0.43995741  0.35293076  0.79915714     0.08160
N598        N  0.32437944  0.29558352  0.86308890    -0.35680
N599        N  0.32404548  0.25833404  0.86008865    -0.27860
C600        C  0.30307365  0.24441467  0.87274801    -0.03100
C601        C  0.28929734  0.27420519  0.88404214     0.05510
C602        C  0.30350367  0.30622292  0.87769610     0.03600
H603        H  0.29815707  0.21470823  0.87356908     0.08710
H604        H  0.29921911  0.33508313  0.88359653     0.07540
N605        N  0.60127871  0.21276431  0.82003790    -0.26840
N606        N  0.58351109  0.23432039  0.80825017    -0.34700
C607        C  0.56592518  0.21225957  0.79538098     0.01500
C608        C  0.57317485  0.17477808  0.79868733     0.07520
C609        C  0.59558991  0.17624622  0.81475500    -0.05580
H610        H  0.54863384  0.22285855  0.78514885     0.08190
H611        H  0.60671624  0.15256256  0.82242365     0.09390
Cu612      Cu  0.58360350  0.29266056  0.81060056     0.44170
Cu613      Cu  0.63151508  0.23496868  0.84346043     0.41990
Cu614      Cu  0.63507672  0.33873028  0.84885171     0.43880
N615        N  0.58629381  0.35059460  0.81550111    -0.34230
N616        N  0.60474164  0.36795680  0.82983767    -0.28480
C617        C  0.59940173  0.40532052  0.83055198    -0.04580
C618        C  0.57649066  0.41152503  0.81590609     0.07630
C619        C  0.56891510  0.37620297  0.80658677     0.01430
H620        H  0.61081394  0.42616185  0.84162784     0.09080
H621        H  0.55121813  0.36933094  0.79534619     0.08160
N622        N  0.66247264  0.30170920  0.86550323    -0.35680
N623        N  0.66074770  0.26438594  0.86405177    -0.27860
C624        C  0.68165785  0.24909399  0.87659380    -0.03100
C625        C  0.69754818  0.27807354  0.88600833     0.05510
C626        C  0.68472144  0.31105651  0.87880586     0.03600
H627        H  0.68544681  0.21907342  0.87796937     0.08710
H628        H  0.69121868  0.33972578  0.88270470     0.07540
N629        N  0.38974903  0.71419683  0.76511791    -0.26840
N630        N  0.40622317  0.73551426  0.77927468    -0.34700
C631        C  0.42467941  0.71335145  0.79045495     0.01500
C632        C  0.41974365  0.67634985  0.78272669     0.07520
C633        C  0.39731390  0.67785043  0.76684366    -0.05580
H634        H  0.44109610  0.72358876  0.80242961     0.08190
H635        H  0.38751852  0.65441621  0.75684008     0.09390
Cu636      Cu  0.40449329  0.79393671  0.78055284     0.44170
Cu637      Cu  0.35879820  0.73590627  0.74287619     0.41990
Cu638      Cu  0.35622083  0.83814521  0.73728182     0.43880
N639        N  0.40250458  0.85160450  0.77434834    -0.34230
N640        N  0.38555201  0.86776156  0.75777347    -0.28480
C641        C  0.39193027  0.90448335  0.75534800    -0.04580
C642        C  0.41355817  0.91180537  0.77160549     0.07630
C643        C  0.41987478  0.87762460  0.78313147     0.01430
H644        H  0.38247922  0.92384355  0.74163991     0.09080
H645        H  0.43706456  0.87146594  0.79526910     0.08160
N646        N  0.32897851  0.80172945  0.71951901    -0.35680
N647        N  0.33001435  0.76452053  0.72160396    -0.27860
C648        C  0.30957870  0.74919476  0.70811663    -0.03100
C649        C  0.29503225  0.77809594  0.69674722     0.05510
C650        C  0.30778212  0.81104812  0.70464512     0.03600
H651        H  0.30541828  0.71923395  0.70705608     0.08710
H652        H  0.30209549  0.83970630  0.69990261     0.07540
C653        C  0.49444472  0.52045897  0.81044684     0.01010
C654        C  0.49364068  0.55924627  0.80678321     0.01010
N655        N  0.60231076  0.70856677  0.76505378    -0.26840
N656        N  0.58295479  0.72974062  0.77428325    -0.34700
C657        C  0.56405669  0.70733051  0.78382772     0.01500
C658        C  0.57196683  0.67025109  0.78054445     0.07520
C659        C  0.59631362  0.67189560  0.76860856    -0.05580
H660        H  0.54551840  0.71724104  0.79163733     0.08190
H661        H  0.60814937  0.64828251  0.76186491     0.09390
Cu662      Cu  0.58247219  0.78787419  0.77166184     0.44170
Cu663      Cu  0.63433890  0.73167707  0.74586553     0.41990
Cu664      Cu  0.63540977  0.83551191  0.73840229     0.43880
N665        N  0.58475306  0.84573431  0.76769159    -0.34230
N666        N  0.60390592  0.86386444  0.75570413    -0.28480
C667        C  0.59867609  0.90127963  0.75652915    -0.04580
C668        C  0.57525311  0.90675452  0.77002507     0.07630
C669        C  0.56693287  0.87076505  0.77636558     0.01430
H670        H  0.61084764  0.92277247  0.74773752     0.09080
H671        H  0.54878177  0.86306165  0.78592383     0.08160
N672        N  0.66370617  0.79863765  0.72333956    -0.35680
N673        N  0.66324540  0.76146533  0.72612083    -0.27860
C674        C  0.68419616  0.74633386  0.71382515    -0.03100
C675        C  0.69879001  0.77527650  0.70299984     0.05510
C676        C  0.68502816  0.80800771  0.70919656     0.03600
H677        H  0.68821990  0.71634020  0.71249231     0.08710
H678        H  0.69014711  0.83659058  0.70384062     0.07540
C679        C  0.49611442  0.05958615  0.77971641     0.01010
C680        C  0.49640227  0.02199093  0.77287475     0.01010
C681        C  0.55993097  0.96994218  0.75426647    -0.11820
C682        C  0.56003374  0.94211805  0.77413127     0.05180
C683        C  0.54263568  0.94578925  0.79580658    -0.07110
C684        C  0.52291375  0.97315706  0.79473563    -0.07850
C685        C  0.52110981  0.99913145  0.77374237    -0.02400
C686        C  0.54088423  0.99900583  0.75382777     0.04410
N687        N  0.54153068  0.02613446  0.73245679     0.66920
H688        H  0.57366539  0.96749724  0.73792834     0.15820
H689        H  0.50845571  0.97405160  0.81049659     0.15530
N690        N  0.54475814  0.92212221  0.81901409     0.74620
O691        O  0.56229988  0.03069316  0.71930213    -0.38830
O692        O  0.52141780  0.04473017  0.72580932    -0.38770
O693        O  0.56708092  0.91303154  0.82817080    -0.39470
O694        O  0.52461812  0.91423443  0.83236239    -0.39540
C695        C  0.51955405  0.59544425  0.77331428    -0.11820
C696        C  0.51796632  0.58174340  0.79969833     0.05180
C697        C  0.53751069  0.59399431  0.81855788    -0.07110
C698        C  0.55631940  0.62072899  0.81081927    -0.07850
C699        C  0.55577657  0.63664767  0.78532106    -0.02400
C700        C  0.53731015  0.62365726  0.76614829     0.04410
N701        N  0.53509240  0.64022001  0.73995411     0.66920
H702        H  0.50613744  0.58534664  0.75801336     0.15820
H703        H  0.57050275  0.63115870  0.82549226     0.15530
N704        N  0.53866515  0.58099900  0.84567105     0.74620
O705        O  0.55517464  0.65141142  0.72779219    -0.38830
O706        O  0.51300378  0.64204150  0.72825539    -0.38770
O707        O  0.56066909  0.57600109  0.85703766    -0.39470
O708        O  0.51822611  0.57931555  0.85951628    -0.39540
C709        C  0.45450295  0.99699323  0.79220909    -0.11820
C710        C  0.47186573  0.99878555  0.77052616     0.05180
C711        C  0.46808518  0.97371447  0.74855212    -0.07110
C712        C  0.44776654  0.94730761  0.74884393    -0.07850
C713        C  0.43098919  0.94487301  0.77070572    -0.02400
C714        C  0.43379293  0.97059321  0.79249762     0.04410
N715        N  0.41632366  0.96990116  0.81506517     0.66920
H716        H  0.45777162  0.01526971  0.80946887     0.15820
H717        H  0.44578274  0.92732873  0.73229281     0.15530
N718        N  0.48544594  0.97341235  0.72623966     0.74620
O719        O  0.42260919  0.98640802  0.83677953    -0.38830
O720        O  0.39360604  0.95589490  0.81277191    -0.38770
O721        O  0.49954536  0.94464482  0.72191272    -0.39470
O722        O  0.48181576  0.99676956  0.70765082    -0.39540
C723        C  0.44501454  0.63872303  0.81561175    -0.11820
C724        C  0.43607822  0.64307525  0.78913943     0.05180
C725        C  0.44283726  0.61568249  0.76957759    -0.07110
C726        C  0.45921214  0.58557253  0.77684135    -0.07850
C727        C  0.46940351  0.58218238  0.80302785    -0.02400
C728        C  0.46116411  0.60824880  0.82289023     0.04410
N729        N  0.46744070  0.60266546  0.85065513     0.66920
H730        H  0.43885875  0.65880777  0.83086014     0.15820
H731        H  0.46492804  0.56531189  0.76157823     0.15530
N732        N  0.43507334  0.61934126  0.74194831     0.74620
O733        O  0.47008936  0.63073140  0.86632991    -0.38830
O734        O  0.46608575  0.56992252  0.86037451    -0.38770
O735        O  0.43823642  0.65033898  0.73011997    -0.39470
O736        O  0.42913912  0.59026662  0.72826160    -0.39540
C737        C  0.55743190  0.10933101  0.80701266    -0.11820
C738        C  0.55791671  0.14087376  0.79014043     0.05180
C739        C  0.54125706  0.14132141  0.76727307    -0.07110
C740        C  0.52253994  0.11273554  0.76377092    -0.07850
C741        C  0.52051033  0.08280344  0.78180922    -0.02400
C742        C  0.53875077  0.08043404  0.80338862     0.04410
N743        N  0.53756602  0.05096539  0.82293513     0.66920
H744        H  0.57015634  0.10865230  0.82454689     0.15820
H745        H  0.50879603  0.11439532  0.74708680     0.15530
N746        N  0.54296705  0.17044898  0.74749626     0.74620
O747        O  0.55851993  0.03808055  0.83309180    -0.38830
O748        O  0.51587408  0.04110208  0.83259447    -0.38770
O749        O  0.56511781  0.18195825  0.73997479    -0.39470
O750        O  0.52258834  0.18143348  0.73517923    -0.39540
C751        C  0.53525599  0.49763535  0.83291810    -0.11820
C752        C  0.52121804  0.50253470  0.80872875     0.05180
C753        C  0.52874555  0.48124071  0.78576089    -0.07110
C754        C  0.54860193  0.45378559  0.78851277    -0.07850
C755        C  0.56064080  0.44645972  0.81335260    -0.02400
C756        C  0.55450467  0.46955642  0.83566652     0.04410
N757        N  0.56448260  0.46153245  0.86202950     0.66920
H758        H  0.52811446  0.51098260  0.85099754     0.15820
H759        H  0.55376541  0.43627102  0.77140868     0.15530
N760        N  0.51520082  0.48460568  0.76028439     0.74620
O761        O  0.57099540  0.48844045  0.87756301    -0.38830
O762        O  0.56177057  0.42888921  0.87158863    -0.38770
O763        O  0.50097664  0.51288490  0.75519987    -0.39470
O764        O  0.51851002  0.46008685  0.74202229    -0.39540
C765        C  0.42931303  0.10988059  0.77514396    -0.11820
C766        C  0.43018053  0.13136578  0.79891542     0.05180
C767        C  0.45127629  0.12664308  0.81715066    -0.07110
C768        C  0.47140765  0.10138433  0.81059075    -0.07850
C769        C  0.47157133  0.08123594  0.78613002    -0.02400
C770        C  0.44997705  0.08536053  0.76822843     0.04410
N771        N  0.44958656  0.06774277  0.74220568     0.66920
H772        H  0.41347709  0.11456827  0.76084714     0.15820
H773        H  0.48773042  0.09854481  0.82446803     0.15530
N774        N  0.45336511  0.14857653  0.84162947     0.74620
O775        O  0.42833035  0.05484714  0.73258729    -0.38830
O776        O  0.46912881  0.07079570  0.72710911    -0.38770
O777        O  0.43312246  0.15760641  0.85458523    -0.39470
O778        O  0.47565356  0.15621557  0.85164483    -0.39540
C779        C  0.42694001  0.46467011  0.81595898    -0.11820
C780        C  0.43632520  0.42899248  0.82251738     0.05180
C781        C  0.46317145  0.42452522  0.82788103    -0.07110
C782        C  0.47998493  0.45533561  0.82503356    -0.07850
C783        C  0.47182631  0.49187239  0.81626115    -0.02400
C784        C  0.44375888  0.49587706  0.81278630     0.04410
N785        N  0.43058502  0.53013118  0.80649419     0.66920
H786        H  0.40601178  0.46830387  0.81244410     0.15820
H787        H  0.50010310  0.44918155  0.83012851     0.15530
N788        N  0.47382490  0.38909153  0.83690419     0.74620
O789        O  0.41901774  0.53198103  0.78401305    -0.38830
O790        O  0.42130813  0.54920623  0.82572173    -0.38770
O791        O  0.49625111  0.37838581  0.82934368    -0.39470
O792        O  0.46230488  0.37062699  0.85478354    -0.39540
C793        C  0.26378684  0.24240179  0.91929286    -0.11820
C794        C  0.26538257  0.27163853  0.90058768     0.05180
C795        C  0.24464398  0.29819432  0.89875173    -0.07110
C796        C  0.22318285  0.29515738  0.91602158    -0.07850
C797        C  0.22148806  0.26569773  0.93453234    -0.02400
C798        C  0.24231745  0.23933336  0.93652735     0.04410
N799        N  0.24268364  0.21055988  0.95667430     0.66920
H800        H  0.27991200  0.22256041  0.92120748     0.15820
H801        H  0.20700868  0.31490623  0.91404821     0.15530
N802        N  0.24417132  0.32684320  0.87853473     0.74620
O803        O  0.25357672  0.17910386  0.95201254    -0.38830
O804        O  0.23550100  0.21825725  0.98025206    -0.38770
O805        O  0.25050674  0.31872014  0.85476420    -0.39470
O806        O  0.23371418  0.35855572  0.88336722    -0.39540
C807        C  0.04586372  0.07544864  0.98985486    -0.11820
C808        C  0.05786917  0.09314291  0.51204438     0.05180
C809        C  0.05345006  0.07917207  0.53809781    -0.07110
C810        C  0.03503070  0.05009268  0.54103894    -0.07850
C811        C  0.02091403  0.03477707  0.51908594    -0.02400
C812        C  0.02761333  0.04622729  0.99304540     0.04410
N813        N  0.01601281  0.02880842  0.96973972     0.66920
H814        H  0.04991823  0.08559410  0.96991349     0.15820
H815        H  0.02952234  0.04227381  0.56106415     0.15530
N816        N  0.06652679  0.09428233  0.56181819     0.74620
O817        O  0.01077855  0.04835191  0.94933952    -0.38830
O818        O  0.01591704  0.99325355  0.96757887    -0.38770
O819        O  0.07844418  0.12552615  0.56164993    -0.39470
O820        O  0.06642647  0.07587416  0.58335783    -0.39540
C821        C  0.01866345  0.42294901  0.56760345    -0.11820
C822        C  0.02034542  0.45694197  0.55331150     0.05180
C823        C  0.04206365  0.46168061  0.53611884    -0.07110
C824        C  0.05917736  0.43123953  0.53142367    -0.07850
C825        C  0.05532348  0.39601347  0.54336999    -0.02400
C826        C  0.03574700  0.39263151  0.56301193     0.04410
N827        N  0.03277041  0.35879139  0.57838472     0.66920
H828        H  0.00323690  0.41949895  0.58212253     0.15820
H829        H  0.07460564  0.43464034  0.51688233     0.15530
N830        N  0.04718093  0.49622897  0.52265812     0.74620
O831        O  0.05272400  0.34201054  0.58769145    -0.38830
O832        O  0.01021813  0.34802646  0.58525636    -0.38770
O833        O  0.06828556  0.51353400  0.52808528    -0.39470
O834        O  0.03579664  0.50257247  0.50060602    -0.39540
C835        C  0.76859945  0.29229647  0.90785705    -0.11820
C836        C  0.77042927  0.26798812  0.92980527     0.05180
C837        C  0.74817061  0.24688421  0.93734909    -0.07110
C838        C  0.72488850  0.24994425  0.92208356    -0.07850
C839        C  0.72309981  0.27427743  0.90011212    -0.02400
C840        C  0.74537023  0.29533434  0.89263449     0.04410
N841        N  0.74526944  0.31818065  0.86895445     0.66920
H842        H  0.78581455  0.30792946  0.90186705     0.15820
H843        H  0.70763225  0.23438849  0.92803523     0.15530
N844        N  0.74832145  0.22404227  0.96106507     0.74620
O845        O  0.75946771  0.34736558  0.86802545    -0.38830
O846        O  0.73414046  0.30642884  0.84770427    -0.38770
O847        O  0.76069707  0.23480128  0.98185753    -0.39470
O848        O  0.73316399  0.19594080  0.96257724    -0.39540
C849        C  0.93587436  0.07414183  0.50296466    -0.11820
C850        C  0.94031802  0.10755710  0.51816316     0.05180
C851        C  0.96138020  0.10748707  0.53698747    -0.07110
C852        C  0.97550475  0.07438274  0.54152032    -0.07850
C853        C  0.97281357  0.04231551  0.52488015    -0.02400
C854        C  0.95253764  0.04237324  0.50526624     0.04410
N855        N  0.94814139  0.01046994  0.48792126     0.66920
H856        H  0.92002818  0.07289931  0.48835860     0.15820
H857        H  0.99060496  0.07523428  0.55688761     0.15530
N858        N  0.97138510  0.14145837  0.54913459     0.74620
O859        O  0.92668679  0.99281034  0.48918683    -0.38830
O860        O  0.96178921  0.00670694  0.96716470    -0.38770
O861        O  0.97576444  0.14272165  0.57408498    -0.39470
O862        O  0.98172396  0.16604905  0.03445847    -0.39540
C863        C  0.95550964  0.44971571  0.56927649    -0.11820
C864        C  0.97149704  0.46179163  0.54830451     0.05180
C865        C  0.96652632  0.44818977  0.52202485    -0.07110
C866        C  0.94694945  0.42113541  0.51751175    -0.07850
C867        C  0.93215092  0.40713614  0.53864576    -0.02400
C868        C  0.93578355  0.42234645  0.56482192     0.04410
N869        N  0.92000580  0.41018945  0.58692331     0.66920
H870        H  0.95939808  0.46032207  0.58938799     0.15820
H871        H  0.94390239  0.40985997  0.49741881     0.15530
N872        N  0.98154588  0.46114222  0.49980774     0.74620
O873        O  0.92810012  0.41486986  0.61074725    -0.38830
O874        O  0.89696502  0.39804081  0.58297829    -0.38770
O875        O  0.98894172  0.43804882  0.48193650    -0.39470
O876        O  0.98376849  0.49613578  0.49578748    -0.39540
C877        C  0.25009910  0.80096424  0.68588937    -0.11820
C878        C  0.27025101  0.77472123  0.68102833     0.05180
C879        C  0.26581043  0.74484527  0.66240560    -0.07110
C880        C  0.24119420  0.74158866  0.64965754    -0.07850
C881        C  0.22113578  0.76798886  0.65436575    -0.02400
C882        C  0.22548074  0.79774659  0.67309066     0.04410
N883        N  0.20488831  0.82367542  0.68036874     0.66920
H884        H  0.25318282  0.82328419  0.70063838     0.15820
H885        H  0.23812464  0.71928923  0.63488345     0.15530
N886        N  0.28635962  0.71897436  0.65498557     0.74620
O887        O  0.18178466  0.81182483  0.68365062    -0.38830
O888        O  0.21038209  0.85729078  0.68712489    -0.38770
O889        O  0.28094810  0.68495537  0.64931791    -0.39470
O890        O  0.30911241  0.73116237  0.65026222    -0.39540
C891        C  0.04433451  0.90079234  0.51573139    -0.11820
C892        C  0.06197298  0.90356304  0.53751502     0.05180
C893        C  0.06054031  0.93536042  0.55467417    -0.07110
C894        C  0.04005205  0.96121075  0.55154379    -0.07850
C895        C  0.02104535  0.95708534  0.53106442    -0.02400
C896        C  0.02351917  0.92663069  0.51227519     0.04410
N897        N  0.00420029  0.91911372  0.99132075     0.66920
H898        H  0.04578384  0.87661599  0.50232935     0.15820
H899        H  0.03739152  0.98209311  0.56719757     0.15530
N900        N  0.07765838  0.93961891  0.57738228     0.74620
O901        O  0.00800755  0.89299280  0.97432145    -0.38830
O902        O  0.98304443  0.93757565  0.48975461    -0.38770
O903        O  0.09609302  0.96338636  0.57675912    -0.39470
O904        O  0.07152115  0.92505139  0.59940304    -0.39540
C905        C  0.02168313  0.56764367  0.54225408    -0.11820
C906        C  0.02072269  0.54233560  0.56366415     0.05180
C907        C  0.04032636  0.54435727  0.58418174    -0.07110
C908        C  0.05884014  0.57401680  0.58332385    -0.07850
C909        C  0.05867500  0.60049979  0.56252813    -0.02400
C910        C  0.04093675  0.59552142  0.54081818     0.04410
N911        N  0.04252190  0.61779646  0.51695199     0.66920
H912        H  0.00725494  0.56520746  0.52616258     0.15820
H913        H  0.07282064  0.57754174  0.59966606     0.15530
N914        N  0.04132953  0.51845608  0.60639007     0.74620
O915        O  0.06461281  0.62517049  0.50705986    -0.38830
O916        O  0.02197923  0.62563095  0.50371059    -0.38770
O917        O  0.05720481  0.52406325  0.62566389    -0.39470
O918        O  0.02734979  0.48908509  0.60661528    -0.39540
C919        C  0.76384131  0.74067706  0.67471464    -0.11820
C920        C  0.76657718  0.76420652  0.65246643     0.05180
C921        C  0.74691563  0.79148817  0.64701768    -0.07110
C922        C  0.72558994  0.79528190  0.66442784    -0.07850
C923        C  0.72289941  0.77184536  0.68673174    -0.02400
C924        C  0.74249286  0.74443010  0.69210224     0.04410
N925        N  0.74190060  0.72168460  0.71577423     0.66920
H926        H  0.77910376  0.72032854  0.67935044     0.15820
H927        H  0.71032718  0.81563338  0.65979946     0.15530
N928        N  0.74743748  0.81406892  0.62325953     0.74620
O929        O  0.75020944  0.68803492  0.71501050    -0.38830
O930        O  0.73671968  0.73665097  0.73819772    -0.38770
O931        O  0.75278899  0.79900674  0.60091061    -0.39470
O932        O  0.73891338  0.84761167  0.62386212    -0.39540
C933        C  0.92814658  0.93326394  0.55092021    -0.11820
C934        C  0.93654408  0.89635515  0.55644792     0.05180
C935        C  0.96330251  0.89017107  0.56196128    -0.07110
C936        C  0.98116310  0.91909744  0.55745618    -0.07850
C937        C  0.97370616  0.95490283  0.54723531    -0.02400
C938        C  0.94629569  0.96324285  0.54834219     0.04410
N939        N  0.93686576  0.00054965  0.55410294     0.66920
H940        H  0.90726204  0.93916213  0.55017713     0.15820
H941        H  0.00142189  0.91260334  0.56205685     0.15530
N942        N  0.97274358  0.85517513  0.57294422     0.74620
O943        O  0.91440121  0.01044612  0.54575206    -0.38830
O944        O  0.94714994  0.01873867  0.57344134    -0.38770
O945        O  0.99474213  0.84205261  0.56597403    -0.39470
O946        O  0.96108495  0.84038943  0.59239215    -0.39540
C947        C  0.94980369  0.59350230  0.59125156    -0.11820
C948        C  0.93192408  0.59718819  0.56995066     0.05180
C949        C  0.93263498  0.57101066  0.54826110    -0.07110
C950        C  0.95301757  0.54406664  0.54759992    -0.07850
C951        C  0.97178353  0.54118498  0.56843821    -0.02400
C952        C  0.96928946  0.56553905  0.59097058     0.04410
N953        N  0.98657760  0.56253148  0.61367156     0.66920
H954        H  0.94888047  0.61304573  0.60811366     0.15820
H955        H  0.95493489  0.52670528  0.52989459     0.15530
N956        N  0.91330172  0.57104966  0.52678570     0.74620
O957        O  0.99728834  0.59181051  0.62351977    -0.38830
O958        O  0.98700835  0.53231530  0.62685486    -0.38770
O959        O  0.89824920  0.59891013  0.52301364    -0.39470
O960        O  0.91062464  0.54226081  0.51178304    -0.39540
loop_ 
_geom_bond_atom_site_label_1 
_geom_bond_atom_site_label_2 
_geom_bond_distance 
_geom_bond_site_symmetry_2 
_ccdc_geom_bond_type 
N1            N2   1.321       .  A
N1            C5   1.348       .  A
N1           Cu9   2.073       .  S
N2            C3   1.342       .  A
N2           Cu8   2.073       .  S
C3            C4   1.385       .  A
C3            H6   1.082       .  S
C4            C5   1.385       .  A
C4          C454   1.481       .  S
C5            H7   1.082       .  S
Cu8          N11   2.073       .  S
Cu9          N19   2.074       .  S
Cu10         N12   2.080       .  S
Cu10         N18   2.081       .  S
N11          N12   1.323       .  A
N11          C15   1.344       .  A
N12          C13   1.348       .  A
C13          C14   1.383       .  A
C13          H16   1.082       .  S
C14          C15   1.381       .  A
C14         C468   1.473       .  S
C15          H17   1.082       .  S
N18          N19   1.323       .  A
N18          C22   1.346       .  A
N19          C20   1.344       .  A
C20          C21   1.385       .  A
C20          H23   1.081       .  S
C21          C22   1.386       .  A
C21         C440   1.484       .  S
C22          H24   1.082       .  S
N25          N26   1.319       .  A
N25          C29   1.346       .  A
N25         Cu33   2.075       .  S
N26          C27   1.341       .  A
N26         Cu32   2.058       .  S
C27          C28   1.385       .  A
C27          H30   1.082       .  S
C28          C29   1.390       .  A
C28         C412   1.485       .  S
C29          H31   1.080       .  S
Cu32         N35   2.058       .  S
Cu33         N43   2.076       .  S
Cu34         N36   2.078       .  S
Cu34         N42   2.079       .  S
N35          N36   1.320       .  A
N35          C39   1.339       .  A
N36          C37   1.348       .  A
C37          C38   1.389       .  A
C37          H40   1.082       .  S
C38          C39   1.384       .  A
C38         C429   1.484       .  S
C39          H41   1.082       .  S
N42          N43   1.324       .  A
N42          C46   1.345       .  A
N43          C44   1.345       .  A
C44          C45   1.384       .  A
C44          H47   1.081       .  S
C45          C46   1.384       .  A
C45         C401   1.480       .  S
C46          H48   1.082       .  S
N49          N50   1.320       .  A
N49          C53   1.344       .  A
N49         Cu57   2.067   1_554  S
N50          C51   1.346       .  A
N50         Cu56   2.074       .  S
C51          C52   1.384       .  A
C51          H54   1.082       .  S
C52          C53   1.383       .  A
C52         C387   1.475       .  S
C53          H55   1.082       .  S
Cu56         N59   2.074       .  S
Cu57        N547   2.068       .  S
Cu58         N66   2.087       .  S
Cu58        N540   2.086       .  S
N59          N60   1.319   1_554  A
N59          C63   1.339       .  A
N60          C61   1.349       .  A
N60        Cu538   2.086       .  S
C61          C62   1.396   1_556  A
C61         H544   1.081       .  S
C62          C63   1.392       .  A
C62         C370   1.505       .  S
C63          H65   1.077       .  S
H64         C541   1.081       .  S
N66          N67   1.323       .  A
N66          C70   1.348       .  A
N67          C68   1.343       .  A
N67        Cu537   2.068       .  S
C68          C69   1.380       .  A
C68          H71   1.082       .  S
C69          C70   1.386       .  A
C69         C356   1.478       .  S
C70          H72   1.082       .  S
N73          N74   1.320       .  A
N73          C77   1.347       .  A
N73         Cu81   2.076   1_554  S
N74          C75   1.340       .  A
N74         Cu80   2.056       .  S
C75          C76   1.384       .  A
C75          H78   1.082       .  S
C76          C77   1.389       .  A
C76         C345   1.483       .  S
C77          H79   1.082       .  S
Cu80         N83   2.056       .  S
Cu81        N571   2.078       .  S
Cu82         N90   2.080       .  S
Cu82        N564   2.078       .  S
N83          N84   1.322   1_554  A
N83          C87   1.341       .  A
N84          C85   1.348       .  A
N84        Cu562   2.078       .  S
C85          C86   1.383   1_556  A
C85         H568   1.082       .  S
C86          C87   1.378       .  A
C86         C328   1.468       .  S
C87          H89   1.082       .  S
H88         C565   1.082       .  S
N90          N91   1.324       .  A
N90          C94   1.345       .  A
N91          C92   1.345       .  A
N91        Cu561   2.078       .  S
C92          C93   1.384       .  A
C92          H95   1.082       .  S
C93          C94   1.385       .  A
C93         C317   1.482       .  S
C94          H96   1.082       .  S
C97          C98   1.384   1_565  D
C97         C415   1.505   1_655  S
C97         C457   1.547       .  S
C98         C331   1.510   1_655  S
C98         C373   1.498       .  S
C99         C100   1.371       .  D
C99         C426   1.488   1_655  S
C99         C471   1.509       .  S
C100        C342   1.507   1_655  S
C100        C384   1.494       .  S
N101        N102   1.321       .  A
N101        C105   1.348       .  A
N101       Cu109   2.075       .  S
N102        C103   1.341       .  A
N102       Cu108   2.058       .  S
C103        C104   1.379       .  A
C103        H106   1.082       .  S
C104        C105   1.384       .  A
C104        C286   1.469       .  S
C105        H107   1.082       .  S
Cu108       N111   2.058       .  S
Cu109       N119   2.076       .  S
Cu110       N112   2.084       .  S
Cu110       N118   2.086       .  S
N111        N112   1.322       .  A
N111        C115   1.341       .  A
N112        C113   1.349       .  A
C113        C114   1.386       .  A
C113        H116   1.082       .  S
C114        C115   1.380       .  A
C114        C300   1.478       .  S
C115        H117   1.082       .  S
N118        N119   1.324       .  A
N118        C122   1.347       .  A
N119        C120   1.344       .  A
C120        C121   1.383       .  A
C120        H123   1.082       .  S
C121        C122   1.386       .  A
C121        C314   1.483       .  S
C122        H124   1.081       .  S
N125        N126   1.320       .  A
N125        C129   1.346       .  A
N125       Cu133   2.072       .  S
N126        C127   1.342       .  A
N126       Cu132   2.065       .  S
C127        C128   1.387       .  A
C127        H130   1.081       .  S
C128        C129   1.388       .  A
C128        C258   1.485       .  S
C129        H131   1.082       .  S
Cu132       N135   2.065       .  S
Cu133       N143   2.073       .  S
Cu134       N136   2.083       .  S
Cu134       N142   2.084       .  S
N135        N136   1.322       .  A
N135        C139   1.341       .  A
N136        C137   1.349       .  A
C137        C138   1.388       .  A
C137        H140   1.082       .  S
C138        C139   1.382       .  A
C138        C275   1.481       .  S
C139        H141   1.082       .  S
N142        N143   1.324       .  A
N142        C146   1.346       .  A
N143        C144   1.345       .  A
C144        C145   1.381       .  A
C144        H147   1.082       .  S
C145        C146   1.385       .  A
C145        C359   1.479       .  S
C146        H148   1.082       .  S
N149        N150   1.322       .  A
N149        C153   1.345       .  A
N149       Cu157   2.069       .  S
N150        C151   1.343       .  A
N150       Cu156   2.068       .  S
C151        C152   1.382       .  A
C151        H154   1.082       .  S
C152        C153   1.384       .  A
C152        C244   1.476       .  S
C153        H155   1.082       .  S
Cu156       N159   2.068       .  S
Cu157       N167   2.070       .  S
Cu158       N160   2.078       .  S
Cu158       N166   2.078       .  S
N159        N160   1.322       .  A
N159        C163   1.343       .  A
N160        C161   1.346       .  A
C161        C162   1.383       .  A
C161        H164   1.082       .  S
C162        C163   1.381       .  A
C162        C233   1.471       .  S
C163        H165   1.082       .  S
N166        N167   1.322       .  A
N166        C170   1.345       .  A
N167        C168   1.344       .  A
C168        C169   1.384       .  A
C168        H171   1.081       .  S
C169        C170   1.386       .  A
C169        C398   1.482       .  S
C170        H172   1.082       .  S
C173        C174   1.386       .  D
C173        C272   1.506       .  S
C173        C303   1.566       .  S
C174        C216   1.521       .  S
C174        C247   1.487       .  S
N175        N176   1.321       .  A
N175        C179   1.347       .  A
N175       Cu183   2.075       .  S
N176        C177   1.343       .  A
N176       Cu182   2.061       .  S
C177        C178   1.380       .  A
C177        H180   1.082       .  S
C178        C179   1.383       .  A
C178        C219   1.471       .  S
C179        H181   1.082       .  S
Cu182       N185   2.061       .  S
Cu183       N193   2.076       .  S
Cu184       N186   2.081       .  S
Cu184       N192   2.083       .  S
N185        N186   1.321       .  A
N185        C189   1.339       .  A
N186        C187   1.349       .  A
C187        C188   1.389       .  A
C187        H190   1.082       .  S
C188        C189   1.383       .  A
C188        C202   1.484       .  S
C189        H191   1.082       .  S
N192        N193   1.324       .  A
N192        C196   1.346       .  A
N193        C194   1.344       .  A
C194        C195   1.384       .  A
C194        H197   1.081       .  S
C195        C196   1.386       .  A
C195        C443   1.484       .  S
C196        H198   1.082       .  S
C199        C200   1.369       .  D
C199        C261   1.492       .  S
C199        C289   1.501       .  S
C200        C205   1.495   1_545  S
C200        C230   1.499   1_545  S
C201        C202   1.405       .  A
C201        C206   1.412       .  A
C201        H208   1.083       .  S
C202        C203   1.411       .  A
C203        C204   1.395       .  A
C203        N210   1.440       .  S
C204        C205   1.403       .  A
C204        H209   1.084       .  S
C205        C206   1.423       .  A
C206        N207   1.443   1_565  S
N207        O211   1.263       .  A
N207        O212   1.260       .  A
N210        O213   1.263       .  A
N210        O214   1.263       .  A
C215        C216   1.411       .  A
C215        C220   1.400       .  A
C215        H222   1.077       .  S
C216        C217   1.426       .  A
C217        C218   1.407       .  A
C217        N224   1.434       .  S
C218        C219   1.397       .  A
C218        H223   1.084       .  S
C219        C220   1.407       .  A
C220        N221   1.442       .  S
N221        O225   1.262       .  A
N221        O226   1.263       .  A
N224        O227   1.263       .  A
N224        O228   1.258       .  A
C229        C230   1.407       .  A
C229        C234   1.410       .  A
C229        H236   1.082   1_565  S
C230        C231   1.413       .  A
C231        C232   1.395       .  A
C231        N238   1.430       .  S
C232        C233   1.397       .  A
C232        H237   1.084       .  S
C233        C234   1.415       .  A
C234        N235   1.444       .  S
N235        O239   1.263       .  A
N235        O240   1.263       .  A
N238        O241   1.262       .  A
N238        O242   1.261       .  A
C243        C244   1.402       .  A
C243        C248   1.403       .  A
C243        H250   1.083       .  S
C244        C245   1.412       .  A
C245        C246   1.400       .  A
C245        N252   1.437       .  S
C246        C247   1.407       .  A
C246        H251   1.082       .  S
C247        C248   1.412       .  A
C248        N249   1.434       .  S
N249        O253   1.263       .  A
N249        O254   1.263       .  A
N252        O255   1.262       .  A
N252        O256   1.263       .  A
C257        C258   1.406       .  A
C257        C262   1.406       .  A
C257        H264   1.083       .  S
C258        C259   1.414       .  A
C259        C260   1.398       .  A
C259        N266   1.438       .  S
C260        C261   1.402       .  A
C260        H265   1.083       .  S
C261        C262   1.417       .  A
C262        N263   1.437       .  S
N263        O267   1.263       .  A
N263        O268   1.262       .  A
N266        O269   1.263       .  A
N266        O270   1.263       .  A
C271        C272   1.408       .  A
C271        C276   1.401       .  A
C271        H278   1.080       .  S
C272        C273   1.420       .  A
C273        C274   1.407       .  A
C273        N280   1.445       .  S
C274        C275   1.403       .  A
C274        H279   1.083       .  S
C275        C276   1.411       .  A
C276        N277   1.436       .  S
N277        O281   1.262       .  A
N277        O282   1.263       .  A
N280        O283   1.260       .  A
N280        O284   1.263       .  A
C285        C286   1.401       .  A
C285        C290   1.406       .  A
C285        H292   1.084       .  S
C286        C287   1.411       .  A
C287        C288   1.398       .  A
C287        N294   1.442       .  S
C288        C289   1.406       .  A
C288        H293   1.081       .  S
C289        C290   1.417       .  A
C290        N291   1.433       .  S
N291        O295   1.263       .  A
N291        O296   1.261       .  A
N294        O297   1.262       .  A
N294        O298   1.263       .  A
C299        C300   1.390       .  A
C299        C304   1.409       .  A
C299        H306   1.086       .  S
C300        C301   1.399       .  A
C301        C302   1.396       .  A
C301        N308   1.440       .  S
C302        C303   1.429       .  A
C302        H307   1.075       .  S
C303        C304   1.445       .  A
C304        N305   1.420       .  S
N305        O309   1.263       .  A
N305        O310   1.262       .  A
N308        O311   1.263       .  A
N308        O312   1.262       .  A
C313        C314   1.404       .  A
C313        C318   1.404       .  A
C313        H320   1.083       .  S
C314        C315   1.415       .  A
C315        C316   1.405       .  A
C315        N322   1.438       .  S
C316        C317   1.404       .  A
C316        H321   1.083       .  S
C317        C318   1.415       .  A
C318        N319   1.439       .  S
N319        O323   1.263       .  A
N319        O324   1.263       .  A
N322        O325   1.263       .  A
N322        O326   1.263       .  A
C327        C332   1.403       .  A
C327        C808   1.400       .  A
C327        H334   1.084       .  S
C328        C329   1.417       .  A
C328        C807   1.400   1_554  A
C329        C330   1.403       .  A
C329        N336   1.448       .  S
C330        C331   1.407       .  A
C330        H335   1.080       .  S
C331        C812   1.411   1_554  A
C332        C811   1.411       .  A
C332        N333   1.431       .  S
N333        O337   1.263       .  A
N333        O338   1.261   1_545  A
N336        O339   1.262       .  A
N336        O340   1.263       .  A
C341        C342   1.408       .  A
C341        C346   1.398       .  A
C341        H348   1.083       .  S
C342        C343   1.419       .  A
C343        C344   1.403       .  A
C343        N350   1.427       .  S
C344        C345   1.402       .  A
C344        H349   1.084       .  S
C345        C346   1.412       .  A
C346        N347   1.438       .  S
N347        O351   1.262       .  A
N347        O352   1.263       .  A
N350        O353   1.263       .  A
N350        O354   1.260       .  A
C355        C356   1.402       .  A
C355        C360   1.403       .  A
C355        H362   1.084       .  S
C356        C357   1.415       .  A
C357        C358   1.406       .  A
C357        N364   1.441       .  S
C358        C359   1.404       .  A
C358        H363   1.084       .  S
C359        C360   1.414       .  A
C360        N361   1.439       .  S
N361        O365   1.263       .  A
N361        O366   1.263       .  A
N364        O367   1.263       .  A
N364        O368   1.263       .  A
C369        C370   1.414       .  A
C369        C374   1.412       .  A
C369        H376   1.082   1_554  S
C370        C371   1.417       .  A
C371        C372   1.392       .  A
C371        N378   1.431       .  S
C372        C373   1.403       .  A
C372        H377   1.080       .  S
C373        C374   1.414       .  A
C374        N375   1.430   1_554  S
N375        O379   1.262   1_545  A
N375        O860   1.260       .  A
N378        O381   1.262       .  A
N378        O862   1.263       .  A
O380        N855   1.260       .  A
O382        N858   1.263       .  A
C383        C384   1.404       .  A
C383        C388   1.410       .  A
C383        H390   1.083       .  S
C384        C385   1.412       .  A
C385        C386   1.397       .  A
C385        N392   1.434   1_554  S
C386        C387   1.399       .  A
C386        H391   1.084   1_554  S
C387        C388   1.417       .  A
C388        N389   1.442       .  S
N389        O393   1.263       .  A
N389        O394   1.263       .  A
N392        O395   1.262       .  A
N392        O396   1.261       .  A
C397        C398   1.404       .  A
C397        C402   1.404       .  A
C397        H404   1.083       .  S
C398        C399   1.415       .  A
C399        C400   1.403       .  A
C399        N406   1.438       .  S
C400        C401   1.403       .  A
C400        H405   1.083       .  S
C401        C402   1.415       .  A
C402        N403   1.439       .  S
N403        O407   1.263       .  A
N403        O408   1.263       .  A
N406        O409   1.263       .  A
N406        O410   1.263       .  A
C411        C412   1.404       .  A
C411        C416   1.409       .  A
C411        H418   1.082       .  S
C412        C413   1.408       .  A
C413        C414   1.395       .  A
C413        N420   1.428       .  S
C414        C415   1.406       .  A
C414        H419   1.078       .  S
C415        C416   1.426       .  A
C416        N897   1.450   1_554  S
N417        C896   1.450       .  S
N417        O421   1.263       .  A
N417        O902   1.261   1_455  A
N420        O423   1.262       .  A
N420        O424   1.262       .  A
O422        N897   1.261   1_655  A
C425        C426   1.403       .  A
C425        C430   1.394       .  A
C425        H432   1.085       .  S
C426        C427   1.423       .  A
C427        C428   1.413       .  A
C427        N434   1.446       .  S
C428        C429   1.406       .  A
C428        H433   1.082       .  S
C429        C430   1.412       .  A
C430        N431   1.439       .  S
N431        O435   1.263       .  A
N431        O436   1.263       .  A
N434        O437   1.263       .  A
N434        O438   1.260       .  A
C439        C440   1.404       .  A
C439        C444   1.404       .  A
C439        H446   1.083       .  S
C440        C441   1.416       .  A
C441        C442   1.404       .  A
C441        N448   1.438       .  S
C442        C443   1.404       .  A
C442        H447   1.083       .  S
C443        C444   1.416       .  A
C444        N445   1.437       .  S
N445        O449   1.263       .  A
N445        O450   1.263       .  A
N448        O451   1.263       .  A
N448        O452   1.263       .  A
C453        C454   1.402       .  A
C453        C458   1.415       .  A
C453        H460   1.084       .  S
C454        C455   1.404       .  A
C455        C456   1.392       .  A
C455        N462   1.439       .  S
C456        C457   1.420       .  A
C456        H461   1.079   1_655  S
C457        C458   1.428       .  A
C458        N459   1.430   1_565  S
N459        O463   1.263       .  A
N459        O464   1.262       .  A
N462        O465   1.263       .  A
N462        O466   1.263       .  A
C467        C468   1.398       .  A
C467        C472   1.400       .  A
C467        H474   1.084       .  S
C468        C469   1.417       .  A
C469        C470   1.408       .  A
C469        N476   1.447       .  S
C470        C471   1.408       .  A
C470        H475   1.075       .  S
C471        C472   1.415       .  A
C472        N473   1.431       .  S
N473        O477   1.263       .  A
N473        O478   1.261       .  A
N476        O479   1.262       .  A
N476        O480   1.263       .  A
N481        N482   1.321       .  A
N481        C485   1.348       .  A
N481       Cu489   2.073       .  S
N482        C483   1.342       .  A
N482       Cu488   2.073       .  S
C483        C484   1.385       .  A
C483        H486   1.082       .  S
C484        C485   1.385       .  A
C484        C934   1.481       .  S
C485        H487   1.082       .  S
Cu488       N491   2.073       .  S
Cu489       N499   2.074       .  S
Cu490       N492   2.080       .  S
Cu490       N498   2.081       .  S
N491        N492   1.323       .  A
N491        C495   1.344       .  A
N492        C493   1.348       .  A
C493        C494   1.383       .  A
C493        H496   1.082       .  S
C494        C495   1.381       .  A
C494        C948   1.473       .  S
C495        H497   1.082       .  S
N498        N499   1.323       .  A
N498        C502   1.346       .  A
N499        C500   1.344       .  A
C500        C501   1.385       .  A
C500        H503   1.081       .  S
C501        C502   1.386       .  A
C501        C920   1.484       .  S
C502        H504   1.082       .  S
N505        N506   1.319       .  A
N505        C509   1.346       .  A
N505       Cu513   2.075       .  S
N506        C507   1.341       .  A
N506       Cu512   2.058       .  S
C507        C508   1.385       .  A
C507        H510   1.082       .  S
C508        C509   1.390       .  A
C508        C892   1.485       .  S
C509        H511   1.080       .  S
Cu512       N515   2.058       .  S
Cu513       N523   2.076       .  S
Cu514       N516   2.078       .  S
Cu514       N522   2.079       .  S
N515        N516   1.320       .  A
N515        C519   1.339       .  A
N516        C517   1.348       .  A
C517        C518   1.389       .  A
C517        H520   1.082       .  S
C518        C519   1.384       .  A
C518        C909   1.484       .  S
C519        H521   1.082       .  S
N522        N523   1.324       .  A
N522        C526   1.345       .  A
N523        C524   1.345       .  A
C524        C525   1.384       .  A
C524        H527   1.081       .  S
C525        C526   1.384       .  A
C525        C881   1.480       .  S
C526        H528   1.082       .  S
N529        N530   1.320       .  A
N529        C533   1.344       .  A
N529       Cu537   2.067       .  S
N530        C531   1.346       .  A
N530       Cu536   2.074       .  S
C531        C532   1.384       .  A
C531        H534   1.082       .  S
C532        C533   1.383       .  A
C532        C867   1.475       .  S
C533        H535   1.082       .  S
Cu536       N539   2.074       .  S
Cu538       N546   2.087       .  S
N539        N540   1.319       .  A
N539        C543   1.339       .  A
N540        C541   1.349       .  A
C541        C542   1.396       .  A
C542        C543   1.392       .  A
C542        C850   1.505       .  S
C543        H545   1.077       .  S
N546        N547   1.323       .  A
N546        C550   1.348       .  A
N547        C548   1.343       .  A
C548        C549   1.380       .  A
C548        H551   1.082       .  S
C549        C550   1.386       .  A
C549        C836   1.478       .  S
C550        H552   1.082       .  S
N553        N554   1.320       .  A
N553        C557   1.347       .  A
N553       Cu561   2.076       .  S
N554        C555   1.340       .  A
N554       Cu560   2.056       .  S
C555        C556   1.384       .  A
C555        H558   1.082       .  S
C556        C557   1.389       .  A
C556        C825   1.483       .  S
C557        H559   1.082       .  S
Cu560       N563   2.056       .  S
Cu562       N570   2.080       .  S
N563        N564   1.322       .  A
N563        C567   1.341       .  A
N564        C565   1.348       .  A
C565        C566   1.383       .  A
C566        C567   1.378       .  A
C566        C808   1.468       .  S
C567        H569   1.082       .  S
N570        N571   1.324       .  A
N570        C574   1.345       .  A
N571        C572   1.345       .  A
C572        C573   1.384       .  A
C572        H575   1.082       .  S
C573        C574   1.385       .  A
C573        C797   1.482       .  S
C574        H576   1.082       .  S
C577        C578   1.384   1_565  D
C577        C895   1.505   1_655  S
C577        C937   1.547       .  S
C578        C811   1.510   1_655  S
C578        C853   1.498       .  S
C579        C580   1.371       .  D
C579        C906   1.488   1_655  S
C579        C951   1.509       .  S
C580        C822   1.507   1_655  S
C580        C864   1.494       .  S
N581        N582   1.321       .  A
N581        C585   1.348       .  A
N581       Cu589   2.075       .  S
N582        C583   1.341       .  A
N582       Cu588   2.058       .  S
C583        C584   1.379       .  A
C583        H586   1.082       .  S
C584        C585   1.384       .  A
C584        C766   1.469       .  S
C585        H587   1.082       .  S
Cu588       N591   2.058       .  S
Cu589       N599   2.076       .  S
Cu590       N592   2.084       .  S
Cu590       N598   2.086       .  S
N591        N592   1.322       .  A
N591        C595   1.341       .  A
N592        C593   1.349       .  A
C593        C594   1.386       .  A
C593        H596   1.082       .  S
C594        C595   1.380       .  A
C594        C780   1.478       .  S
C595        H597   1.082       .  S
N598        N599   1.324       .  A
N598        C602   1.347       .  A
N599        C600   1.344       .  A
C600        C601   1.383       .  A
C600        H603   1.082       .  S
C601        C602   1.386       .  A
C601        C794   1.483       .  S
C602        H604   1.081       .  S
N605        N606   1.320       .  A
N605        C609   1.346       .  A
N605       Cu613   2.072       .  S
N606        C607   1.342       .  A
N606       Cu612   2.065       .  S
C607        C608   1.387       .  A
C607        H610   1.081       .  S
C608        C609   1.388       .  A
C608        C738   1.485       .  S
C609        H611   1.082       .  S
Cu612       N615   2.065       .  S
Cu613       N623   2.073       .  S
Cu614       N616   2.083       .  S
Cu614       N622   2.084       .  S
N615        N616   1.322       .  A
N615        C619   1.341       .  A
N616        C617   1.349       .  A
C617        C618   1.388       .  A
C617        H620   1.082       .  S
C618        C619   1.382       .  A
C618        C755   1.481       .  S
C619        H621   1.082       .  S
N622        N623   1.324       .  A
N622        C626   1.346       .  A
N623        C624   1.345       .  A
C624        C625   1.381       .  A
C624        H627   1.082       .  S
C625        C626   1.385       .  A
C625        C839   1.479       .  S
C626        H628   1.082       .  S
N629        N630   1.322       .  A
N629        C633   1.345       .  A
N629       Cu637   2.069       .  S
N630        C631   1.343       .  A
N630       Cu636   2.068       .  S
C631        C632   1.382       .  A
C631        H634   1.082       .  S
C632        C633   1.384       .  A
C632        C724   1.476       .  S
C633        H635   1.082       .  S
Cu636       N639   2.068       .  S
Cu637       N647   2.070       .  S
Cu638       N640   2.078       .  S
Cu638       N646   2.078       .  S
N639        N640   1.322       .  A
N639        C643   1.343       .  A
N640        C641   1.346       .  A
C641        C642   1.383       .  A
C641        H644   1.082       .  S
C642        C643   1.381       .  A
C642        C713   1.471       .  S
C643        H645   1.082       .  S
N646        N647   1.322       .  A
N646        C650   1.345       .  A
N647        C648   1.344       .  A
C648        C649   1.384       .  A
C648        H651   1.081       .  S
C649        C650   1.386       .  A
C649        C878   1.482       .  S
C650        H652   1.082       .  S
C653        C654   1.386       .  D
C653        C752   1.506       .  S
C653        C783   1.566       .  S
C654        C696   1.521       .  S
C654        C727   1.487       .  S
N655        N656   1.321       .  A
N655        C659   1.347       .  A
N655       Cu663   2.075       .  S
N656        C657   1.343       .  A
N656       Cu662   2.061       .  S
C657        C658   1.380       .  A
C657        H660   1.082       .  S
C658        C659   1.383       .  A
C658        C699   1.471       .  S
C659        H661   1.082       .  S
Cu662       N665   2.061       .  S
Cu663       N673   2.076       .  S
Cu664       N666   2.081       .  S
Cu664       N672   2.083       .  S
N665        N666   1.321       .  A
N665        C669   1.339       .  A
N666        C667   1.349       .  A
C667        C668   1.389       .  A
C667        H670   1.082       .  S
C668        C669   1.383       .  A
C668        C682   1.484       .  S
C669        H671   1.082       .  S
N672        N673   1.324       .  A
N672        C676   1.346       .  A
N673        C674   1.344       .  A
C674        C675   1.384       .  A
C674        H677   1.081       .  S
C675        C676   1.386       .  A
C675        C923   1.484       .  S
C676        H678   1.082       .  S
C679        C680   1.369       .  D
C679        C741   1.492       .  S
C679        C769   1.501       .  S
C680        C685   1.495   1_545  S
C680        C710   1.499   1_545  S
C681        C682   1.405       .  A
C681        C686   1.412       .  A
C681        H688   1.083       .  S
C682        C683   1.411       .  A
C683        C684   1.395       .  A
C683        N690   1.440       .  S
C684        C685   1.403       .  A
C684        H689   1.084       .  S
C685        C686   1.423       .  A
C686        N687   1.443   1_565  S
N687        O691   1.263       .  A
N687        O692   1.260       .  A
N690        O693   1.263       .  A
N690        O694   1.263       .  A
C695        C696   1.411       .  A
C695        C700   1.400       .  A
C695        H702   1.077       .  S
C696        C697   1.426       .  A
C697        C698   1.407       .  A
C697        N704   1.434       .  S
C698        C699   1.397       .  A
C698        H703   1.084       .  S
C699        C700   1.407       .  A
C700        N701   1.442       .  S
N701        O705   1.262       .  A
N701        O706   1.263       .  A
N704        O707   1.263       .  A
N704        O708   1.258       .  A
C709        C710   1.407       .  A
C709        C714   1.410       .  A
C709        H716   1.082   1_565  S
C710        C711   1.413       .  A
C711        C712   1.395       .  A
C711        N718   1.430       .  S
C712        C713   1.397       .  A
C712        H717   1.084       .  S
C713        C714   1.415       .  A
C714        N715   1.444       .  S
N715        O719   1.263       .  A
N715        O720   1.263       .  A
N718        O721   1.262       .  A
N718        O722   1.261       .  A
C723        C724   1.402       .  A
C723        C728   1.403       .  A
C723        H730   1.083       .  S
C724        C725   1.412       .  A
C725        C726   1.400       .  A
C725        N732   1.437       .  S
C726        C727   1.407       .  A
C726        H731   1.082       .  S
C727        C728   1.412       .  A
C728        N729   1.434       .  S
N729        O733   1.263       .  A
N729        O734   1.263       .  A
N732        O735   1.262       .  A
N732        O736   1.263       .  A
C737        C738   1.406       .  A
C737        C742   1.406       .  A
C737        H744   1.083       .  S
C738        C739   1.414       .  A
C739        C740   1.398       .  A
C739        N746   1.438       .  S
C740        C741   1.402       .  A
C740        H745   1.083       .  S
C741        C742   1.417       .  A
C742        N743   1.437       .  S
N743        O747   1.263       .  A
N743        O748   1.262       .  A
N746        O749   1.263       .  A
N746        O750   1.263       .  A
C751        C752   1.408       .  A
C751        C756   1.401       .  A
C751        H758   1.080       .  S
C752        C753   1.420       .  A
C753        C754   1.407       .  A
C753        N760   1.445       .  S
C754        C755   1.403       .  A
C754        H759   1.083       .  S
C755        C756   1.411       .  A
C756        N757   1.436       .  S
N757        O761   1.262       .  A
N757        O762   1.263       .  A
N760        O763   1.260       .  A
N760        O764   1.263       .  A
C765        C766   1.401       .  A
C765        C770   1.406       .  A
C765        H772   1.084       .  S
C766        C767   1.411       .  A
C767        C768   1.398       .  A
C767        N774   1.442       .  S
C768        C769   1.406       .  A
C768        H773   1.081       .  S
C769        C770   1.417       .  A
C770        N771   1.433       .  S
N771        O775   1.263       .  A
N771        O776   1.261       .  A
N774        O777   1.262       .  A
N774        O778   1.263       .  A
C779        C780   1.390       .  A
C779        C784   1.409       .  A
C779        H786   1.086       .  S
C780        C781   1.399       .  A
C781        C782   1.396       .  A
C781        N788   1.440       .  S
C782        C783   1.429       .  A
C782        H787   1.075       .  S
C783        C784   1.445       .  A
C784        N785   1.420       .  S
N785        O789   1.263       .  A
N785        O790   1.262       .  A
N788        O791   1.263       .  A
N788        O792   1.262       .  A
C793        C794   1.404       .  A
C793        C798   1.404       .  A
C793        H800   1.083       .  S
C794        C795   1.415       .  A
C795        C796   1.405       .  A
C795        N802   1.438       .  S
C796        C797   1.404       .  A
C796        H801   1.083       .  S
C797        C798   1.415       .  A
C798        N799   1.439       .  S
N799        O803   1.263       .  A
N799        O804   1.263       .  A
N802        O805   1.263       .  A
N802        O806   1.263       .  A
C807        C812   1.403       .  A
C807        H814   1.084       .  S
C808        C809   1.417       .  A
C809        C810   1.403       .  A
C809        N816   1.448       .  S
C810        C811   1.407       .  A
C810        H815   1.080       .  S
C812        N813   1.431       .  S
N813        O817   1.263       .  A
N813        O818   1.261   1_545  A
N816        O819   1.262       .  A
N816        O820   1.263       .  A
C821        C822   1.408       .  A
C821        C826   1.398       .  A
C821        H828   1.083       .  S
C822        C823   1.419       .  A
C823        C824   1.403       .  A
C823        N830   1.427       .  S
C824        C825   1.402       .  A
C824        H829   1.084       .  S
C825        C826   1.412       .  A
C826        N827   1.438       .  S
N827        O831   1.262       .  A
N827        O832   1.263       .  A
N830        O833   1.263       .  A
N830        O834   1.260       .  A
C835        C836   1.402       .  A
C835        C840   1.403       .  A
C835        H842   1.084       .  S
C836        C837   1.415       .  A
C837        C838   1.406       .  A
C837        N844   1.441       .  S
C838        C839   1.404       .  A
C838        H843   1.084       .  S
C839        C840   1.414       .  A
C840        N841   1.439       .  S
N841        O845   1.263       .  A
N841        O846   1.263       .  A
N844        O847   1.263       .  A
N844        O848   1.263       .  A
C849        C850   1.414       .  A
C849        C854   1.412       .  A
C849        H856   1.082       .  S
C850        C851   1.417       .  A
C851        C852   1.392       .  A
C851        N858   1.431       .  S
C852        C853   1.403       .  A
C852        H857   1.080       .  S
C853        C854   1.414       .  A
C854        N855   1.430       .  S
N855        O859   1.262   1_545  A
N858        O861   1.262       .  A
C863        C864   1.404       .  A
C863        C868   1.410       .  A
C863        H870   1.083       .  S
C864        C865   1.412       .  A
C865        C866   1.397       .  A
C865        N872   1.434       .  S
C866        C867   1.399       .  A
C866        H871   1.084       .  S
C867        C868   1.417       .  A
C868        N869   1.442       .  S
N869        O873   1.263       .  A
N869        O874   1.263       .  A
N872        O875   1.262       .  A
N872        O876   1.261       .  A
C877        C878   1.404       .  A
C877        C882   1.404       .  A
C877        H884   1.083       .  S
C878        C879   1.415       .  A
C879        C880   1.403       .  A
C879        N886   1.438       .  S
C880        C881   1.403       .  A
C880        H885   1.083       .  S
C881        C882   1.415       .  A
C882        N883   1.439       .  S
N883        O887   1.263       .  A
N883        O888   1.263       .  A
N886        O889   1.263       .  A
N886        O890   1.263       .  A
C891        C892   1.404       .  A
C891        C896   1.409       .  A
C891        H898   1.082       .  S
C892        C893   1.408       .  A
C893        C894   1.395       .  A
C893        N900   1.428       .  S
C894        C895   1.406       .  A
C894        H899   1.078       .  S
C895        C896   1.426       .  A
N897        O901   1.263       .  A
N900        O903   1.262       .  A
N900        O904   1.262       .  A
C905        C906   1.403       .  A
C905        C910   1.394       .  A
C905        H912   1.085       .  S
C906        C907   1.423       .  A
C907        C908   1.413       .  A
C907        N914   1.446       .  S
C908        C909   1.406       .  A
C908        H913   1.082       .  S
C909        C910   1.412       .  A
C910        N911   1.439       .  S
N911        O915   1.263       .  A
N911        O916   1.263       .  A
N914        O917   1.263       .  A
N914        O918   1.260       .  A
C919        C920   1.404       .  A
C919        C924   1.404       .  A
C919        H926   1.083       .  S
C920        C921   1.416       .  A
C921        C922   1.404       .  A
C921        N928   1.438       .  S
C922        C923   1.404       .  A
C922        H927   1.083       .  S
C923        C924   1.416       .  A
C924        N925   1.437       .  S
N925        O929   1.263       .  A
N925        O930   1.263       .  A
N928        O931   1.263       .  A
N928        O932   1.263       .  A
C933        C934   1.402       .  A
C933        C938   1.415       .  A
C933        H940   1.084       .  S
C934        C935   1.404       .  A
C935        C936   1.392       .  A
C935        N942   1.439       .  S
C936        C937   1.420       .  A
C936        H941   1.079   1_655  S
C937        C938   1.428       .  A
C938        N939   1.430   1_565  S
N939        O943   1.263       .  A
N939        O944   1.262       .  A
N942        O945   1.263       .  A
N942        O946   1.263       .  A
C947        C948   1.398       .  A
C947        C952   1.400       .  A
C947        H954   1.084       .  S
C948        C949   1.417       .  A
C949        C950   1.408       .  A
C949        N956   1.447       .  S
C950        C951   1.408       .  A
C950        H955   1.075       .  S
C951        C952   1.415       .  A
C952        N953   1.431       .  S
N953        O957   1.263       .  A
N953        O958   1.261       .  A
N956        O959   1.262       .  A
N956        O960   1.263       .  A
