geometry optimzed in LAMMPS
_audit_creation_date              2020-11-30 
_audit_creation_method            'lammps2cif' 
_symmetry_space_group_name_H-M    'P1' 
_symmetry_Int_Tables_number       1 
_symmetry_cell_setting            triclinic 
loop_ 
_symmetry_equiv_pos_as_xyz 
  x,y,z 
_cell_length_a                    46.23350163 
_cell_length_b                    46.261700904481025 
_cell_length_c                    46.26362754270291 
_cell_angle_alpha                 90.14769497733448 
_cell_angle_beta                  90.07527358960434 
_cell_angle_gamma                 90.2869106729223 
loop_ 
_atom_site_label 
_atom_site_type_symbol 
_atom_site_fract_x 
_atom_site_fract_y 
_atom_site_fract_z 
_atom_site_charge 
Zr1        Zr  0.43177470  0.16837544  0.23215212     2.17500
O2          O  0.43094434  0.21988692  0.24358402    -0.52000
O3          O  0.38845431  0.15900300  0.26076106    -0.75200
O4          O  0.39492007  0.19439514  0.20572278    -0.82000
O5          O  0.49698601  0.16041771  0.28091225    -0.83700
O6          O  0.38226287  0.16979022  0.16507622    -0.79300
O7          O  0.45680448  0.18773884  0.27482165    -0.91000
O8          O  0.38150148  0.11077149  0.26636406    -0.76900
O9          O  0.40376524  0.12909250  0.21389570    -0.86400
O10         O  0.44750926  0.12691820  0.25793988    -0.86100
O11         O  0.44217305  0.16687264  0.18111155    -0.72900
O12         O  0.48246236  0.16426535  0.22140151    -0.85000
Zr13       Zr  0.47999220  0.07983072  0.17874592     2.26400
Zr14       Zr  0.41379001  0.12686961  0.16310332     2.06300
Zr15       Zr  0.49768487  0.12171408  0.24623943     2.10000
Zr16       Zr  0.41981152  0.08763824  0.23961499     1.78800
O17         O  0.54649544  0.14177857  0.24866956    -0.93800
O18         O  0.37488119  0.06327205  0.22631466    -0.41600
O19         O  0.47012578  0.08142678  0.22944447    -0.78200
O20         O  0.42907917  0.08434969  0.18887733    -0.96900
O21         O  0.46412413  0.12128222  0.15301747    -0.90200
O22         O  0.50859278  0.11893106  0.19600479    -0.93100
C23         C  0.37399164  0.13712019  0.27002917     1.00700
C24         C  0.48046600  0.18139134  0.28802989     1.13600
C25         C  0.37987371  0.19142095  0.18258233     1.04400
O26         O  0.36345085  0.11188816  0.15847401    -0.95200
O27         O  0.41348823  0.08516427  0.12945731    -0.91000
O28         O  0.45403151  0.05917127  0.13894921    -0.84100
C29         C  0.43065023  0.06364774  0.12487529     1.11000
O30         O  0.49911215  0.21248314  0.17546919    -0.97200
Zr31       Zr  0.49244739  0.16038846  0.17069209     1.88900
O32         O  0.50954980  0.08800256  0.13616841    -0.73900
O33         O  0.41477640  0.14821353  0.11503693    -0.53100
O34         O  0.47785331  0.18473131  0.12646085    -0.97800
O35         O  0.54333713  0.17271199  0.17805511    -0.55000
O36         O  0.51673641  0.13630085  0.13090773    -0.74400
C37         C  0.51933343  0.11003126  0.12235221     0.98000
O38         O  0.47933707  0.02700648  0.17963530    -0.63200
O39         O  0.50304695  0.09989268  0.29379798    -0.58000
O40         O  0.52416135  0.05907469  0.19877973    -0.94700
O41         O  0.52857607  0.07972585  0.24317999    -0.93100
O42         O  0.42905357  0.07439814  0.28970039    -0.93500
O43         O  0.42290949  0.03529804  0.24408263    -0.92200
C44         C  0.53606127  0.06129932  0.22382849     1.16800
H45         H  0.44456074  0.12928303  0.27847247     0.32800
H46         H  0.41870728  0.06751891  0.18199781     0.43600
H47         H  0.52890954  0.11555637  0.19267701     0.37100
H48         H  0.43655144  0.18466540  0.17186671     0.33600
H49         H  0.36674734  0.05627196  0.24482619     0.25400
H50         H  0.39503851  0.14494738  0.10732352     0.31300
H51         H  0.47129750  0.16900339  0.11342203     0.37200
H52         H  0.41107345  0.06465377  0.29613479     0.31700
H53         H  0.52089638  0.10870511  0.30184135     0.30600
H54         H  0.55859440  0.12863027  0.23693405     0.32300
H55         H  0.55438829  0.15558128  0.17165427     0.31200
H56         H  0.43672488  0.02939339  0.22887965     0.35200
H57         H  0.48507830  0.02154771  0.19950436     0.28000
H58         H  0.41110157  0.22386093  0.25054765     0.32200
H59         H  0.51283692  0.21795321  0.15998065     0.35000
H60         H  0.48721826  0.10808063  0.30560224     0.27700
H61         H  0.45862493  0.02152769  0.17866227     0.40500
H62         H  0.36265688  0.09250835  0.16745363     0.30600
H63         H  0.36175086  0.07902729  0.22037228     0.38200
H64         H  0.54585632  0.17323876  0.19929536     0.30100
H65         H  0.41591030  0.16933638  0.11839737     0.30100
H66         H  0.43249671  0.23007114  0.22484391     0.30400
Zr67       Zr  0.07958582  0.17601101  0.47962416     2.17500
O68         O  0.02714405  0.17377542  0.48546125    -0.52000
O69         O  0.08731395  0.13337466  0.50900506    -0.75200
O70         O  0.05756976  0.13723094  0.45269228    -0.82000
O71         O  0.07982130  0.24375341  0.52490864    -0.83700
O72         O  0.08393550  0.12605047  0.41284420    -0.79300
O73         O  0.05715878  0.20018151  0.52113090    -0.91000
O74         O  0.13563583  0.12616190  0.51341727    -0.76900
O75         O  0.12063654  0.14946286  0.46370746    -0.86400
O76         O  0.11913035  0.19313297  0.50774377    -0.86100
O77         O  0.08369864  0.18534567  0.42853793    -0.72900
O78         O  0.08236337  0.22653714  0.46854958    -0.85000
Zr79       Zr  0.16915075  0.22823382  0.43063694     2.26400
Zr80       Zr  0.12592312  0.15917208  0.41324954     2.06300
Zr81       Zr  0.12305274  0.24331277  0.49588902     2.10000
Zr82       Zr  0.16019218  0.16716162  0.49136733     1.78800
O83         O  0.10540705  0.29203268  0.50480132    -0.93800
O84         O  0.18834601  0.12461738  0.47857950    -0.41600
O85         O  0.16528869  0.21790768  0.48123954    -0.78200
O86         O  0.16620109  0.17723401  0.44107709    -0.96900
O87         O  0.12980745  0.20961510  0.40288274    -0.90200
O88         O  0.12750066  0.25407559  0.44562750    -0.93100
C89         C  0.10919408  0.11842334  0.51702718     1.00700
C90         C  0.05999694  0.22567846  0.53201304     1.13600
C91         C  0.06197902  0.12251449  0.42967733     1.04400
O92         O  0.14599022  0.11062066  0.41245882    -0.95200
O93         O  0.16913640  0.16052100  0.38224759    -0.91000
O94         O  0.19280903  0.20266876  0.39205176    -0.84100
C95         C  0.19003944  0.17869150  0.37836243     1.11000
O96         O  0.03558117  0.23530676  0.41717093    -0.97200
Zr97       Zr  0.08831954  0.23554037  0.41789693     1.88900
O98         O  0.16167201  0.25701718  0.38733164    -0.73900
O99         O  0.10918305  0.15649627  0.36335872    -0.53100
O100        O  0.06905217  0.22043154  0.37117778    -0.97800
O101        O  0.07031059  0.28446206  0.42521551    -0.55000
O102        O  0.11329553  0.26217437  0.38038238    -0.74400
C103        C  0.13972802  0.26606115  0.37292638     0.98000
O104        O  0.22180352  0.23120043  0.43458034    -0.63200
O105        O  0.14493385  0.24037122  0.54373767    -0.58000
O106        O  0.18668182  0.27396667  0.45160684    -0.94700
O107        O  0.15988717  0.28046602  0.49217401    -0.93100
O108        O  0.17058472  0.17479586  0.54242258    -0.93500
O109        O  0.21211874  0.17157266  0.49921875    -0.92200
C110        C  0.18002935  0.28811786  0.47467568     1.16800
H111        H  0.11569175  0.19002198  0.52808819     0.32800
H112        H  0.18384651  0.16779265  0.43527682     0.43600
H113        H  0.12963074  0.27458952  0.44235636     0.37100
H114        H  0.06670902  0.17870697  0.41829526     0.33600
H115        H  0.19044691  0.11373139  0.49686043     0.25400
H116        H  0.11577203  0.13736671  0.35642119     0.31300
H117        H  0.08544029  0.21088421  0.36133717     0.37200
H118        H  0.17539253  0.15535012  0.54986100     0.31700
H119        H  0.14730226  0.26072741  0.54998142     0.30600
H120        H  0.10976715  0.29586946  0.52542250     0.32300
H121        H  0.08570673  0.29736609  0.41774276     0.31200
H122        H  0.21935713  0.18187498  0.48192383     0.35200
H123        H  0.22566299  0.23472714  0.45535529     0.28000
H124        H  0.02291541  0.15421827  0.49309231     0.32200
H125        H  0.03003546  0.24943949  0.40213364     0.35000
H126        H  0.12951602  0.23263295  0.55642192     0.27700
H127        H  0.22889274  0.21128381  0.43139788     0.40500
H128        H  0.13590910  0.10026538  0.42824237     0.30600
H129        H  0.17507776  0.11264122  0.46669904     0.38200
H130        H  0.07081099  0.28732798  0.44642723     0.30100
H131        H  0.08787412  0.15465783  0.36455489     0.30100
H132        H  0.01895424  0.17386423  0.46566842     0.30400
Zr133      Zr  0.22668169  0.43010556  0.17434789     2.17500
O134        O  0.22996610  0.42857410  0.22702329    -0.52000
O135        O  0.25778125  0.38862928  0.16499703    -0.75200
O136        O  0.20120551  0.38970565  0.19475603    -0.82000
O137        O  0.27033499  0.49863523  0.17716545    -0.83700
O138        O  0.16215494  0.37802305  0.16713188    -0.79300
O139        O  0.26816470  0.45379059  0.19715737    -0.91000
O140        O  0.26347545  0.38345197  0.11652990    -0.76900
O141        O  0.21208161  0.40449830  0.13210530    -0.86400
O142        O  0.25448592  0.45004779  0.13609958    -0.86100
O143        O  0.17540347  0.43841667  0.17014111    -0.72900
O144        O  0.21375935  0.48027404  0.17341524    -0.85000
Zr145      Zr  0.17683788  0.48326476  0.08637424     2.26400
Zr146      Zr  0.16127378  0.41291918  0.12706067     2.06300
Zr147      Zr  0.24086919  0.49981181  0.13427277     2.10000
Zr148      Zr  0.23979985  0.42465192  0.09386141     1.78800
O149        O  0.24425472  0.54706822  0.15738955    -0.93800
O150        O  0.22752650  0.38448615  0.06187167    -0.41600
O151        O  0.22769289  0.47494746  0.09105092    -0.78200
O152        O  0.18904498  0.43267697  0.08769218    -0.96900
O153        O  0.14911827  0.46295566  0.12471941    -0.90200
O154        O  0.19041098  0.50897681  0.12888741    -0.93100
C155        C  0.26712385  0.37488209  0.14269542     1.00700
C156        C  0.27831942  0.47966093  0.19560837     1.13600
C157        C  0.17875407  0.37439282  0.18922580     1.04400
O158        O  0.15793518  0.36446747  0.10658954    -0.95200
O159        O  0.13026710  0.41436449  0.08388812    -0.91000
O160        O  0.13923263  0.45706232  0.06115061    -0.84100
C161        C  0.12607062  0.43268578  0.06333841     1.11000
O162        O  0.16654515  0.49084166  0.21968244    -0.97200
Zr163      Zr  0.16301587  0.48850186  0.16713245     1.88900
O164        O  0.13258912  0.51025532  0.09396179    -0.73900
O165        O  0.11241378  0.41167728  0.14655414    -0.53100
O166        O  0.11833057  0.47162107  0.18952205    -0.97800
O167        O  0.16760820  0.53803866  0.18478627    -0.55000
O168        O  0.12399362  0.51331187  0.14222874    -0.74400
C169        C  0.11710963  0.51780216  0.11572574     0.98000
O170        O  0.18217187  0.48793332  0.03406071    -0.63200
O171        O  0.28996175  0.50315111  0.11552794    -0.58000
O172        O  0.19708174  0.52955768  0.06991654    -0.94700
O173        O  0.23786896  0.53581367  0.09661181    -0.93100
O174        O  0.29087728  0.43477389  0.08550922    -0.93500
O175        O  0.25041875  0.43393246  0.04313626    -0.92200
C176        C  0.22053765  0.54332831  0.07631192     1.16800
H177        H  0.27496213  0.44784893  0.13958357     0.32800
H178        H  0.18360099  0.42349446  0.06971652     0.43600
H179        H  0.18652747  0.52939813  0.12710910     0.37100
H180        H  0.16534572  0.43083105  0.18677108     0.33600
H181        H  0.24634286  0.37582777  0.05658905     0.25400
H182        H  0.10582807  0.39150623  0.14347009     0.31300
H183        H  0.10492404  0.46792131  0.17320895     0.37200
H184        H  0.29880535  0.41645240  0.07784800     0.31700
H185        H  0.28838282  0.49647285  0.09523595     0.30600
H186        H  0.26280583  0.55530776  0.15050848     0.32300
H187        H  0.15787745  0.55018733  0.17016162     0.31200
H188        H  0.23145235  0.43861451  0.03439931     0.35200
H189        H  0.20291201  0.49233276  0.03088026     0.28000
H190        H  0.23600302  0.40870172  0.23207468     0.32200
H191        H  0.14967974  0.50226161  0.22615131     0.35000
H192        H  0.29396269  0.52413886  0.11405631     0.27700
H193        H  0.17992992  0.46807948  0.02631044     0.40500
H194        H  0.17699533  0.35566806  0.11060244     0.30600
H195        H  0.21829868  0.36999224  0.07463062     0.38200
H196        H  0.18841154  0.54275542  0.18275630     0.30100
H197        H  0.11495526  0.41334899  0.16774611     0.30100
H198        H  0.20978806  0.43018031  0.23399558     0.30400
Zr199      Zr  0.98305059  0.41944338  0.81956617     2.17500
O200        O  0.98811395  0.47195117  0.81965009    -0.52000
O201        O  0.01309482  0.41125137  0.86188408    -0.75200
O202        O  0.95647942  0.44086320  0.85864802    -0.82000
O203        O  0.02708002  0.42206185  0.75128286    -0.83700
O204        O  0.91759995  0.41304468  0.87052902    -0.79300
O205        O  0.02421898  0.44275247  0.79582225    -0.91000
O206        O  0.02119934  0.36315056  0.86661475    -0.76900
O207        O  0.96879923  0.37739130  0.84553396    -0.86400
O208        O  0.01162837  0.38135258  0.80064863    -0.86100
O209        O  0.93178956  0.41438554  0.81127636    -0.72900
O210        O  0.97054049  0.41763956  0.76942053    -0.85000
Zr211      Zr  0.93423112  0.33010492  0.76717375     2.26400
Zr212      Zr  0.91802407  0.37133049  0.83712005     2.06300
Zr213      Zr  0.99824177  0.37840646  0.75080916     2.10000
Zr214      Zr  0.99710384  0.33926013  0.82619495     1.78800
O215        O  0.00518371  0.39985021  0.70327005    -0.93800
O216        O  0.98802860  0.30924149  0.86844431    -0.41600
O217        O  0.98515531  0.33528195  0.77581933    -0.78200
O218        O  0.94631728  0.33213013  0.81786129    -0.96900
O219        O  0.90613530  0.36835516  0.78685634    -0.90200
O220        O  0.94769381  0.37244181  0.74150195    -0.93100
C221        C  0.02342727  0.38940452  0.87543738     1.00700
C222        C  0.03447994  0.44116723  0.77004265     1.13600
C223        C  0.93390986  0.43556051  0.87378448     1.04400
O224        O  0.92119474  0.35050724  0.88526968    -0.95200
O225        O  0.88641383  0.32826893  0.83556058    -0.91000
O226        O  0.89690956  0.30511351  0.79354045    -0.84100
C227        C  0.88302533  0.30731172  0.81738303     1.11000
O228        O  0.91912112  0.46330944  0.75866432    -0.97200
Zr229      Zr  0.91988122  0.41065867  0.76125884     1.88900
O230        O  0.89055470  0.33741456  0.73850534    -0.73900
O231        O  0.86778878  0.38617731  0.84237166    -0.53100
O232        O  0.87448802  0.43081078  0.77880653    -0.97800
O233        O  0.92804357  0.42785025  0.71219397    -0.55000
O234        O  0.88213054  0.38563634  0.73475110    -0.74400
C235        C  0.87540213  0.35910351  0.73013759     0.98000
O236        O  0.93873843  0.27774117  0.76124124    -0.63200
O237        O  0.04623196  0.35695711  0.74911288    -0.58000
O238        O  0.95532018  0.31296733  0.72179006    -0.94700
O239        O  0.99424591  0.34189297  0.71366387    -0.93100
O240        O  0.04805973  0.33188789  0.81515605    -0.93500
O241        O  0.00616122  0.28773030  0.82025726    -0.92200
C242        C  0.97753859  0.32071511  0.70692102     1.16800
H243        H  0.03201173  0.38531825  0.80314644     0.32800
H244        H  0.94103692  0.31420083  0.82715106     0.43600
H245        H  0.94381340  0.37035122  0.72108334     0.37100
H246        H  0.92140001  0.43100330  0.81834341     0.33600
H247        H  0.00720580  0.30686649  0.87767931     0.25400
H248        H  0.86309480  0.38230086  0.86288080     0.31300
H249        H  0.86322472  0.41391392  0.78565487     0.37200
H250        H  0.05669939  0.32531032  0.83358118     0.31700
H251        H  0.05116437  0.35620665  0.72830697     0.30600
H252        H  0.02335746  0.39133478  0.69590926     0.32300
H253        H  0.91857588  0.41340434  0.69945680     0.31200
H254        H  0.99912705  0.28305346  0.80056786     0.35200
H255        H  0.95982771  0.27415970  0.76050151     0.28000
H256        H  0.99538075  0.47709529  0.83915207     0.32200
H257        H  0.90253416  0.46809456  0.74601165     0.35000
H258        H  0.05934084  0.37191544  0.75719759     0.27700
H259        H  0.93280537  0.26895469  0.77980479     0.40500
H260        H  0.92350509  0.32949900  0.88193089     0.30600
H261        H  0.97727031  0.32192371  0.88187406     0.38200
H262        H  0.94901094  0.42512556  0.70890068     0.30100
H263        H  0.86817953  0.40752199  0.84089310     0.30100
H264        H  0.96811934  0.47950093  0.81897325     0.30400
Zr265      Zr  0.76631697  0.92928294  0.32761520     2.17500
O266        O  0.75817030  0.93007321  0.27556044    -0.52000
O267        O  0.73836977  0.88539488  0.33562492    -0.75200
O268        O  0.79254081  0.89136038  0.30389110    -0.82000
O269        O  0.72019767  0.99567335  0.32873288    -0.83700
O270        O  0.83235632  0.87933243  0.32994652    -0.79300
O271        O  0.72362627  0.95196749  0.30664298    -0.91000
O272        O  0.73396325  0.87835195  0.38396232    -0.76900
O273        O  0.78271215  0.90245943  0.36815111    -0.86400
O274        O  0.73873761  0.94609160  0.36747351    -0.86100
O275        O  0.81747608  0.93929266  0.33074943    -0.72900
O276        O  0.77762963  0.97981744  0.33024141    -0.85000
Zr277      Zr  0.81689921  0.98073133  0.41647694     2.26400
Zr278      Zr  0.83330900  0.91233818  0.37224461     2.06300
Zr279      Zr  0.75082491  0.99626425  0.37098461     2.10000
Zr280      Zr  0.75567180  0.91985074  0.40809783     1.78800
O281        O  0.74554119  0.04476933  0.35134814    -0.93800
O282        O  0.76857113  0.87785018  0.43694726    -0.41600
O283        O  0.76613242  0.97049195  0.41281385    -0.78200
O284        O  0.80621345  0.92977385  0.41318126    -0.96900
O285        O  0.84392171  0.96281977  0.37647621    -0.90200
O286        O  0.80116023  0.00735627  0.37557746    -0.93100
C287        C  0.73052031  0.87038118  0.35759100     1.00700
C288        C  0.71252858  0.97725331  0.30939228     1.13600
C289        C  0.81529103  0.87625388  0.30797597     1.04400
O290        O  0.83494314  0.86380319  0.39240668    -0.95200
O291        O  0.86501286  0.91302215  0.41502722    -0.91000
O292        O  0.85564104  0.95467879  0.43958622    -0.84100
C293        C  0.86923894  0.93079590  0.43618837     1.11000
O294        O  0.82387364  0.99446545  0.28350215    -0.97200
Zr295      Zr  0.82825081  0.98974026  0.33581800     1.88900
O296        O  0.86088400  0.00899391  0.40917258    -0.73900
O297        O  0.88265221  0.91105324  0.35400915    -0.53100
O298        O  0.87232277  0.97718384  0.30992418    -0.97800
O299        O  0.82120957  0.04049767  0.32354362    -0.55000
O300        O  0.86836324  0.01310963  0.36080991    -0.74400
C301        C  0.87594177  0.01705324  0.38723982     0.98000
O302        O  0.81194596  0.98412284  0.46892711    -0.63200
O303        O  0.70180639  0.99650497  0.39017085    -0.58000
O304        O  0.79589334  0.02594190  0.43475030    -0.94700
O305        O  0.75396284  0.03112744  0.40973040    -0.93100
O306        O  0.70459376  0.92709443  0.41855808    -0.93500
O307        O  0.74791174  0.92528516  0.45987597    -0.92200
C308        C  0.77200205  0.03912712  0.42929655     1.16800
H309        H  0.71827182  0.94306855  0.36439874     0.32800
H310        H  0.81227647  0.92011602  0.43062140     0.43600
H311        H  0.80441478  0.02781694  0.37829397     0.37100
H312        H  0.82733298  0.93286913  0.31352726     0.33600
H313        H  0.75011086  0.86734829  0.43999449     0.25400
H314        H  0.88836664  0.89051975  0.35560245     0.31300
H315        H  0.88525950  0.96897429  0.32482953     0.37200
H316        H  0.69706073  0.90753543  0.42300918     0.31700
H317        H  0.70424592  0.99799464  0.41138487     0.30600
H318        H  0.72822499  0.05276631  0.36100072     0.32300
H319        H  0.83069559  0.05167390  0.33921198     0.31200
H320        H  0.76425300  0.93748894  0.46657222     0.35200
H321        H  0.79084377  0.98529281  0.47237494     0.28000
H322        H  0.75189617  0.91024273  0.27030498     0.32200
H323        H  0.83657086  0.01088708  0.27812019     0.35000
H324        H  0.69382662  0.01543819  0.38434236     0.27700
H325        H  0.81719636  0.96484997  0.47648875     0.40500
H326        H  0.81942553  0.85301520  0.38221737     0.30600
H327        H  0.77964590  0.86535560  0.42358999     0.38200
H328        H  0.80026576  0.04391677  0.32621871     0.30100
H329        H  0.88077317  0.91443684  0.33296998     0.30100
H330        H  0.77761613  0.93232017  0.26688423     0.30400
Zr331      Zr  0.06586639  0.83032121  0.72856043     2.17500
O332        O  0.05927220  0.77855921  0.73592041    -0.52000
O333        O  0.11094439  0.83655028  0.75540203    -0.75200
O334        O  0.10074033  0.80362822  0.70087456    -0.82000
O335        O  0.00639215  0.84156557  0.78259444    -0.83700
O336        O  0.11266429  0.82777045  0.65983825    -0.79300
O337        O  0.04532488  0.81306569  0.77404478    -0.91000
O338        O  0.11917146  0.88469583  0.76092748    -0.76900
O339        O  0.09434033  0.86842176  0.70879251    -0.86400
O340        O  0.05349949  0.87238525  0.75522913    -0.86100
O341        O  0.05324770  0.83214576  0.67800541    -0.72900
O342        O  0.01501328  0.83630962  0.72056420    -0.85000
Zr343      Zr  0.01747465  0.91978700  0.67764686     2.26400
Zr344      Zr  0.08172749  0.87119618  0.65870907     2.06300
Zr345      Zr  0.00303147  0.87911101  0.74659811     2.10000
Zr346      Zr  0.08134163  0.91044486  0.73523264     1.78800
O347        O  0.95469116  0.85914608  0.75312311    -0.93800
O348        O  0.12745534  0.93171304  0.72101782    -0.41600
O349        O  0.03070296  0.91827613  0.72769128    -0.78200
O350        O  0.06873838  0.91398941  0.68521838    -0.96900
O351        O  0.03105273  0.87789305  0.65111691    -0.90200
O352        O  0.98918293  0.88148560  0.69691824    -0.93100
C353        C  0.12620276  0.85811579  0.76435780     1.00700
C354        C  0.02318176  0.82054975  0.78907910     1.13600
C355        C  0.11494401  0.80610119  0.67724267     1.04400
O356        O  0.13159454  0.88702197  0.65221225    -0.95200
O357        O  0.08088067  0.91260709  0.62522947    -0.91000
O358        O  0.04152266  0.93979325  0.63640100    -0.84100
C359        C  0.06406954  0.93447077  0.62131206     1.11000
O360        O  0.99498329  0.78842846  0.68001185    -0.97200
Zr361      Zr  0.00266842  0.83970382  0.67028007     1.88900
O362        O  0.98608337  0.91274498  0.63592231    -0.73900
O363        O  0.07807977  0.85012142  0.61054845    -0.53100
O364        O  0.01459760  0.81147889  0.62739491    -0.97800
O365        O  0.95148659  0.82867084  0.67716910    -0.55000
O366        O  0.97832529  0.86447099  0.63064453    -0.74400
C367        C  0.97571503  0.89079712  0.62223296     0.98000
O368        O  0.01855729  0.97252934  0.68047825    -0.63200
O369        O  0.00218630  0.90355621  0.79335109    -0.58000
O370        O  0.97470660  0.94140491  0.69964903    -0.94700
O371        O  0.97227620  0.92119056  0.74435717    -0.93100
O372        O  0.07258269  0.92619365  0.78474818    -0.93500
O373        O  0.08328145  0.96307049  0.73601251    -0.92200
C374        C  0.96425698  0.93964688  0.72532684     1.16800
H375        H  0.05774877  0.87016978  0.77554844     0.32800
H376        H  0.07909018  0.93054035  0.67777844     0.43600
H377        H  0.96876467  0.88526176  0.69488131     0.37100
H378        H  0.05799692  0.81419069  0.66850002     0.33600
H379        H  0.13690501  0.93740324  0.73940887     0.25400
H380        H  0.09795822  0.85135255  0.60269533     0.31300
H381        H  0.01907677  0.82599895  0.61235048     0.37200
H382        H  0.09202574  0.92745188  0.79366562     0.31700
H383        H  0.98284088  0.89908282  0.80139052     0.30600
H384        H  0.95564522  0.83960374  0.74440276     0.32300
H385        H  0.94582691  0.81756512  0.65971480     0.31200
H386        H  0.07209876  0.96905854  0.71879602     0.35200
H387        H  0.01878378  0.97692917  0.70144128     0.28000
H388        H  0.07816405  0.77148358  0.74301694     0.32200
H389        H  0.98481077  0.78047821  0.66288446     0.35000
H390        H  0.01581921  0.89274975  0.80575544     0.27700
H391        H  0.03805475  0.97847178  0.67388000     0.40500
H392        H  0.13193201  0.90722973  0.65930292     0.30600
H393        H  0.13901908  0.91520934  0.71390252     0.38200
H394        H  0.94130139  0.84730571  0.67502641     0.30100
H395        H  0.07483502  0.82922525  0.61387990     0.30100
H396        H  0.05717938  0.77021050  0.71629316     0.30400
Zr397      Zr  0.41426298  0.82052505  0.98110324     2.17500
O398        O  0.46637601  0.81660150  0.98823504    -0.52000
O399        O  0.40722067  0.86513264  0.00796361    -0.75200
O400        O  0.43956902  0.85718333  0.95437607    -0.82000
O401        O  0.40149279  0.76362489  0.03773874    -0.83700
O402        O  0.41657721  0.86611392  0.91190619    -0.79300
O403        O  0.43168360  0.80094947  0.02708247    -0.91000
O404        O  0.35903160  0.87374205  0.01101910    -0.76900
O405        O  0.37615880  0.84796949  0.96012122    -0.86400
O406        O  0.37179311  0.80840591  0.00728107    -0.86100
O407        O  0.41291038  0.80691677  0.93073020    -0.72900
O408        O  0.40903131  0.76947605  0.97393759    -0.85000
Zr409      Zr  0.32513212  0.76965441  0.92963982     2.26400
Zr410      Zr  0.37363132  0.83424275  0.91028501     2.06300
Zr411      Zr  0.36593355  0.75766201  0.99961070     2.10000
Zr412      Zr  0.33370304  0.83511343  0.98595981     1.78800
O413        O  0.38888820  0.71112658  0.00783687    -0.93800
O414        O  0.31221429  0.88003863  0.96903898    -0.41600
O415        O  0.32652735  0.78415444  0.97947481    -0.78200
O416        O  0.33045573  0.82116093  0.93626142    -0.96900
O417        O  0.36742016  0.78331907  0.90354044    -0.90200
O418        O  0.36355605  0.74246885  0.95016557    -0.93100
C419        C  0.38553691  0.88060793  0.01561408     1.00700
C420        C  0.42316410  0.78013057  0.04346834     1.13600
C421        C  0.43717746  0.87051201  0.93028750     1.04400
O422        O  0.35701633  0.88365082  0.90372332    -0.95200
O423        O  0.33234347  0.83253401  0.87624702    -0.91000
O424        O  0.30518794  0.79296637  0.88757847    -0.84100
C425        C  0.31045662  0.81546237  0.87228962     1.11000
O426        O  0.45601596  0.74454140  0.93441272    -0.97200
Zr427      Zr  0.40565051  0.75600348  0.92386816     1.88900
O428        O  0.33337770  0.73763660  0.88863728    -0.73900
O429        O  0.39504643  0.83228929  0.86223955    -0.53100
O430        O  0.43718295  0.76775271  0.88331670    -0.97800
O431        O  0.41355906  0.70448481  0.93165323    -0.55000
O432        O  0.38189305  0.73302912  0.88264294    -0.74400
C433        C  0.35560870  0.72891456  0.87446265     0.98000
O434        O  0.27225299  0.76970216  0.93002873    -0.63200
O435        O  0.34069760  0.75467709  0.04569068    -0.58000
O436        O  0.30280998  0.72768512  0.95339685    -0.94700
O437        O  0.32409906  0.72634041  0.99767848    -0.93100
O438        O  0.31692311  0.82803986  0.03532952    -0.93500
O439        O  0.28119855  0.83858788  0.98838440    -0.92200
C440        C  0.30507349  0.71781437  0.97930856     1.16800
H441        H  0.37368501  0.81318573  0.02753339     0.32800
H442        H  0.31391208  0.83110299  0.92841780     0.43600
H443        H  0.35984401  0.72196588  0.94859249     0.37100
H444        H  0.43093533  0.81203619  0.92149949     0.33600
H445        H  0.30796469  0.89120652  0.98681538     0.25400
H446        H  0.39350668  0.85230322  0.85487003     0.31300
H447        H  0.42390023  0.77376209  0.86767040     0.37200
H448        H  0.31759786  0.84752742  0.04420919     0.31700
H449        H  0.35189038  0.74063012  0.05725201     0.30600
H450        H  0.37317250  0.69837772  0.01490031     0.32300
H451        H  0.39641243  0.69455247  0.92340466     0.31200
H452        H  0.27418080  0.82771966  0.97127430     0.35200
H453        H  0.26673535  0.76786003  0.95062074     0.28000
H454        H  0.47314805  0.83626800  0.99349813     0.32200
H455        H  0.46240146  0.73152155  0.91866358     0.35000
H456        H  0.34431006  0.77355504  0.05518881     0.27700
H457        H  0.26657204  0.78971623  0.92516306     0.40500
H458        H  0.36535547  0.89454701  0.92021817     0.30600
H459        H  0.32836700  0.89070427  0.95987069     0.38200
H460        H  0.41176155  0.70181583  0.95279924     0.30100
H461        H  0.41599307  0.82952308  0.86566136     0.30100
H462        H  0.47439409  0.81300528  0.96872356     0.30400
Zr463      Zr  0.32158563  0.51739249  0.57960349     2.17500
O464        O  0.32245021  0.51174766  0.52712986    -0.52000
O465        O  0.36421705  0.48837648  0.58914681    -0.75200
O466        O  0.36097933  0.54328844  0.55776626    -0.82000
O467        O  0.25464913  0.47207530  0.57813656    -0.83700
O468        O  0.37136894  0.58418045  0.58306801    -0.79300
O469        O  0.29912338  0.47476838  0.55747013    -0.91000
O470        O  0.36941453  0.48303346  0.63760472    -0.76900
O471        O  0.34736473  0.53451373  0.62083981    -0.86400
O472        O  0.30347141  0.48995888  0.61909013    -0.86100
O473        O  0.31185690  0.56849537  0.58239731    -0.72900
O474        O  0.27103465  0.52863999  0.58073919    -0.85000
Zr475      Zr  0.26839777  0.56825901  0.66642968     2.26400
Zr476      Zr  0.33762969  0.58523466  0.62444820     2.06300
Zr477      Zr  0.25319168  0.50201987  0.62103891     2.10000
Zr478      Zr  0.32891684  0.50738928  0.66035278     1.78800
O479        O  0.20586844  0.49565174  0.59876705    -0.93800
O480        O  0.37177195  0.52005135  0.68853282    -0.41600
O481        O  0.27815421  0.51750047  0.66361628    -0.78200
O482        O  0.31935741  0.55797940  0.66485315    -0.96900
O483        O  0.28716139  0.59560305  0.62710234    -0.90200
O484        O  0.24252241  0.55233188  0.62490637    -0.93100
C485        C  0.37810288  0.47961412  0.61150713     1.00700
C486        C  0.27341802  0.46420239  0.55934740     1.13600
C487        C  0.37542251  0.56662555  0.56172307     1.04400
O488        O  0.38641110  0.58932635  0.64390468    -0.95200
O489        O  0.33577853  0.61694070  0.66759167    -0.91000
O490        O  0.29264854  0.60800995  0.68944666    -0.84100
C491        C  0.31692633  0.62129206  0.68775355     1.11000
O492        O  0.26184443  0.57688035  0.53300469    -0.97200
Zr493      Zr  0.26147270  0.57931674  0.58567309     1.88900
O494        O  0.23847236  0.61047833  0.65842969    -0.73900
O495        O  0.33791673  0.63386187  0.60436675    -0.53100
O496        O  0.27511395  0.62430607  0.56194830    -0.97800
O497        O  0.21190276  0.57088406  0.56945267    -0.55000
O498        O  0.23601779  0.61830143  0.61009020    -0.74400
C499        C  0.23057929  0.62534830  0.63639740     0.98000
O500        O  0.26649677  0.56597634  0.71916572    -0.63200
O501        O  0.24857040  0.45387827  0.64176589    -0.58000
O502        O  0.22304668  0.54771536  0.68409922    -0.94700
O503        O  0.21630609  0.50670672  0.65780990    -0.93100
O504        O  0.31850112  0.45743038  0.67338076    -0.93500
O505        O  0.32401001  0.50148421  0.71241547    -0.92200
C506        C  0.20878749  0.52466180  0.67759770     1.16800
H507        H  0.30643261  0.46949080  0.61623933     0.32800
H508        H  0.32852941  0.56425611  0.68256171     0.43600
H509        H  0.22201689  0.55567284  0.62688816     0.37100
H510        H  0.31878109  0.57817072  0.56526838     0.33600
H511        H  0.38226541  0.50163186  0.69117499     0.25400
H512        H  0.35800017  0.64084170  0.60723342     0.31300
H513        H  0.25657124  0.63337342  0.55637722     0.37200
H514        H  0.33754384  0.44774416  0.67338727     0.31700
H515        H  0.25820780  0.44085718  0.62780302     0.30600
H516        H  0.19848645  0.47716771  0.60667751     0.32300
H517        H  0.19946324  0.57906377  0.58480123     0.31200
H518        H  0.31255021  0.51836767  0.71873694     0.35200
H519        H  0.26108947  0.54576252  0.72372958     0.28000
H520        H  0.34228406  0.50544944  0.52218554     0.32200
H521        H  0.24464347  0.58776959  0.52652254     0.35000
H522        H  0.26149978  0.45413977  0.65882511     0.27700
H523        H  0.28686193  0.56749291  0.72568135     0.40500
H524        H  0.39738557  0.57368202  0.63431942     0.30600
H525        H  0.38402464  0.53135732  0.67509884     0.38200
H526        H  0.20909217  0.54971086  0.57090518     0.30100
H527        H  0.33610447  0.63105925  0.58321256     0.30100
H528        H  0.32083433  0.53157501  0.51928518     0.30400
Zr529      Zr  0.51494383  0.58471661  0.31627811     2.17500
O530        O  0.50598826  0.53273457  0.31338359    -0.52000
O531        O  0.48762285  0.59131483  0.36074930    -0.75200
O532        O  0.54203810  0.55850482  0.35208787    -0.82000
O533        O  0.46047292  0.59720182  0.25689308    -0.83700
O534        O  0.58432517  0.58153041  0.36228036    -0.79300
O535        O  0.46982102  0.56754803  0.29476721    -0.91000
O536        O  0.48772578  0.63910132  0.37208434    -0.76900
O537        O  0.53612196  0.62211856  0.34472861    -0.86400
O538        O  0.48931509  0.62755510  0.30457168    -0.86100
O539        O  0.56531614  0.58573493  0.30285086    -0.72900
O540        O  0.52209948  0.59081941  0.26528547    -0.85000
Zr541      Zr  0.56711237  0.67420262  0.26804596     2.26400
Zr542      Zr  0.58592726  0.62447475  0.33116161     2.06300
Zr543      Zr  0.49720625  0.63441098  0.25394331     2.10000
Zr544      Zr  0.51077981  0.66490906  0.33269147     1.78800
O545        O  0.49523303  0.61508951  0.20498732    -0.93800
O546        O  0.53012683  0.68760685  0.37625767    -0.41600
O547        O  0.51724756  0.67294182  0.28195838    -0.78200
O548        O  0.56053523  0.66801834  0.31922102    -0.96900
O549        O  0.59275409  0.63157514  0.28051885    -0.90200
O550        O  0.54669834  0.63652351  0.23956048    -0.93100
C551        C  0.48174226  0.61258330  0.37762890     1.00700
C552        C  0.45441282  0.57553547  0.27308020     1.13600
C553        C  0.56607282  0.56067766  0.36574959     1.04400
O554        O  0.59111855  0.64219462  0.38047161    -0.95200
O555        O  0.62108657  0.66447395  0.33024854    -0.91000
O556        O  0.60957077  0.69274872  0.29175718    -0.84100
C557        C  0.62517623  0.68655970  0.31376700     1.11000
O558        O  0.56195982  0.54289464  0.24327855    -0.97200
Zr559      Zr  0.57227739  0.59391824  0.25220541     1.88900
O560        O  0.60774992  0.66666229  0.23571289    -0.73900
O561        O  0.63395022  0.60320571  0.32883682    -0.53100
O562        O  0.61546783  0.56619234  0.26370215    -0.97800
O563        O  0.56452377  0.58326493  0.20109818    -0.55000
O564        O  0.61135222  0.61854503  0.22667554    -0.74400
C565        C  0.62035950  0.64475857  0.22426277     0.98000
O566        O  0.56702449  0.72698336  0.27025817    -0.63200
O567        O  0.44961580  0.65663010  0.25046871    -0.58000
O568        O  0.54381626  0.69706720  0.22655031    -0.94700
O569        O  0.49828381  0.67816666  0.22529785    -0.93100
O570        O  0.46052310  0.68011301  0.32987427    -0.93500
O571        O  0.50741721  0.71743307  0.33296589    -0.92200
C572        C  0.51767509  0.69628123  0.21701696     1.16800
H573        H  0.46898807  0.62561820  0.30900730     0.32800
H574        H  0.56867283  0.68428184  0.32958082     0.43600
H575        H  0.54856799  0.64058577  0.21918296     0.37100
H576        H  0.57441529  0.56759351  0.30753058     0.33600
H577        H  0.51288264  0.69362641  0.38738302     0.25400
H578        H  0.64123876  0.60406733  0.34895776     0.31300
H579        H  0.62674706  0.56573092  0.24552859     0.37200
H580        H  0.45531744  0.68527914  0.34998271     0.31700
H581        H  0.44010611  0.64698880  0.23382414     0.30600
H582        H  0.47881732  0.62520436  0.19579019     0.32300
H583        H  0.56849440  0.60156834  0.19076995     0.31200
H584        H  0.52252883  0.72391344  0.31926419     0.35200
H585        H  0.54644943  0.73255694  0.26845035     0.28000
H586        H  0.49894161  0.52704762  0.33277380     0.32200
H587        H  0.57879001  0.53543636  0.23240732     0.35000
H588        H  0.43884488  0.64968662  0.26760676     0.27700
H589        H  0.57186723  0.73193491  0.29053556     0.40500
H590        H  0.60532615  0.62910146  0.38956827     0.30600
H591        H  0.53833437  0.67145287  0.38755534     0.38200
H592        H  0.54337647  0.58038298  0.19920362     0.30100
H593        H  0.63049883  0.58238560  0.32512271     0.30100
H594        H  0.52528160  0.52370886  0.31157676     0.30400
Zr595      Zr  0.67228795  0.27049954  0.56730313     2.17500
O596        O  0.72490688  0.26645274  0.56712364    -0.52000
O597        O  0.66343983  0.23901369  0.60889055    -0.75200
O598        O  0.69426512  0.29527923  0.60759140    -0.82000
O599        O  0.67225911  0.22628292  0.49937050    -0.83700
O600        O  0.66787815  0.33474083  0.61995485    -0.79300
O601        O  0.69488016  0.22950614  0.54292664    -0.91000
O602        O  0.61506791  0.23298432  0.61473959    -0.76900
O603        O  0.63074185  0.28478123  0.59388277    -0.86400
O604        O  0.63336329  0.24272638  0.54810222    -0.86100
O605        O  0.66824424  0.32190745  0.55970455    -0.72900
O606        O  0.66988485  0.28435345  0.51726538    -0.85000
Zr607      Zr  0.58280163  0.32095059  0.51776740     2.26400
Zr608      Zr  0.62603593  0.33578050  0.58667674     2.06300
Zr609      Zr  0.63004349  0.25702626  0.49861099     2.10000
Zr610      Zr  0.59179566  0.25702314  0.57456915     1.78800
O611        O  0.65098118  0.24976504  0.45085412    -0.93800
O612        O  0.56155006  0.26460542  0.61702541    -0.41600
O613        O  0.58743318  0.26978741  0.52457050    -0.78200
O614        O  0.58580626  0.30800309  0.56814609    -0.96900
O615        O  0.62177063  0.34879381  0.53690017    -0.90200
O616        O  0.62441269  0.30773708  0.49077905    -0.93100
C617        C  0.64131425  0.22943586  0.62287166     1.00700
C618        C  0.69185391  0.21866102  0.51747221     1.13600
C619        C  0.68979474  0.31781248  0.62304521     1.04400
O620        O  0.60968042  0.33786436  0.63660078    -0.95200
O621        O  0.58231198  0.36618481  0.58771413    -0.91000
O622        O  0.55880096  0.35793048  0.54526605    -0.84100
C623        C  0.56138638  0.37068069  0.56976712     1.11000
O624        O  0.71534202  0.33453341  0.50206090    -0.97200
Zr625      Zr  0.66321323  0.33534674  0.50995969     1.88900
O626        O  0.58913603  0.36503544  0.48947959    -0.73900
O627        O  0.64363235  0.38545184  0.58565114    -0.53100
O628        O  0.68575971  0.37883993  0.52986668    -0.97800
O629        O  0.67761339  0.33229618  0.45928021    -0.55000
O630        O  0.63726449  0.37441321  0.48615024    -0.74400
C631        C  0.61066580  0.38077887  0.48137286     0.98000
O632        O  0.53031645  0.31523671  0.51466186    -0.63200
O633        O  0.60684453  0.20965162  0.49742514    -0.58000
O634        O  0.56490663  0.30149067  0.47201128    -0.94700
O635        O  0.59432575  0.26375424  0.46081625    -0.93100
O636        O  0.58391503  0.20571253  0.56511463    -0.93500
O637        O  0.54047227  0.24902048  0.56539692    -0.92200
C638        C  0.57296494  0.28059727  0.45556253     1.16800
H639        H  0.63689271  0.22225564  0.55002317     0.32800
H640        H  0.56819546  0.31315639  0.57804909     0.43600
H641        H  0.62197288  0.31210581  0.47053161     0.37100
H642        H  0.68523666  0.33180019  0.56688150     0.33600
H643        H  0.55622393  0.24491250  0.62355415     0.25400
H644        H  0.63637060  0.39414277  0.60380448     0.31300
H645        H  0.67119872  0.39427828  0.52752043     0.37200
H646        H  0.57604040  0.19795819  0.58343599     0.31700
H647        H  0.58660750  0.21345941  0.49160544     0.30600
H648        H  0.64131240  0.23221458  0.44314536     0.32300
H649        H  0.66075580  0.33899147  0.44795697     0.31200
H650        H  0.53232507  0.26864614  0.56319636     0.35200
H651        H  0.52709078  0.29425852  0.51165752     0.28000
H652        H  0.73031455  0.25923982  0.58652224     0.32200
H653        H  0.72012402  0.35315686  0.49264688     0.35000
H654        H  0.61548785  0.19975385  0.48054496     0.27700
H655        H  0.52293661  0.31870519  0.53443975     0.40500
H656        H  0.60548882  0.31750329  0.64170251     0.30600
H657        H  0.57493701  0.27192385  0.63210599     0.38200
H658        H  0.67873724  0.31131329  0.45518105     0.30100
H659        H  0.66479473  0.38399735  0.58853833     0.30100
H660        H  0.73226474  0.28658473  0.56647692     0.30400
Zr661      Zr  0.67895184  0.01860942  0.91909896     2.17500
O662        O  0.67698022  0.01228789  0.97140932    -0.52000
O663        O  0.63691902  0.98776408  0.91117058    -0.75200
O664        O  0.64043620  0.04563155  0.94110807    -0.82000
O665        O  0.74740927  0.97496767  0.91986300    -0.83700
O666        O  0.62854777  0.08517467  0.91472852    -0.79300
O667        O  0.70402753  0.97832210  0.94261015    -0.91000
O668        O  0.62949380  0.98307269  0.86292096    -0.76900
O669        O  0.65212189  0.03412534  0.87801740    -0.86400
O670        O  0.69646484  0.99045600  0.87985987    -0.86100
O671        O  0.68823178  0.06981640  0.91483100    -0.72900
O672        O  0.72940407  0.03033656  0.91649554    -0.85000
Zr673      Zr  0.73008412  0.06795203  0.82943639     2.26400
Zr674      Zr  0.66152441  0.08488121  0.87260602     2.06300
Zr675      Zr  0.74654465  0.00319232  0.87616432     2.10000
Zr676      Zr  0.66997511  0.00619571  0.83882083     1.78800
O677        O  0.79542555  0.99977388  0.89545510    -0.93800
O678        O  0.62769536  0.01855612  0.80998692    -0.41600
O679        O  0.72051898  0.01715885  0.83397679    -0.78200
O680        O  0.67919002  0.05681372  0.83248503    -0.96900
O681        O  0.71203646  0.09584446  0.86881156    -0.90200
O682        O  0.75678519  0.05347830  0.87084314    -0.93100
C683        C  0.62211131  0.97902589  0.88930172     1.00700
C684        C  0.72969712  0.96796812  0.93996823     1.13600
C685        C  0.62543239  0.06840715  0.93680789     1.04400
O686        O  0.61293450  0.08514883  0.85223737    -0.95200
O687        O  0.66238963  0.11605818  0.82916547    -0.91000
O688        O  0.70454527  0.10665661  0.80577205    -0.84100
C689        C  0.68050681  0.12015900  0.80829028     1.11000
O690        O  0.74494515  0.08018095  0.96251313    -0.97200
Zr691      Zr  0.73854162  0.08087606  0.91017353     1.88900
O692        O  0.76049303  0.11044521  0.83663760    -0.73900
O693        O  0.65880637  0.13499852  0.88865848    -0.53100
O694        O  0.72157513  0.12522140  0.93291520    -0.97800
O695        O  0.78840706  0.07437312  0.92619469    -0.55000
O696        O  0.76435893  0.11871855  0.88489835    -0.74400
C697        C  0.76919999  0.12540120  0.85846956     0.98000
O698        O  0.73138503  0.06401040  0.77678241    -0.63200
O699        O  0.75016996  0.95433746  0.85676006    -0.58000
O700        O  0.77494886  0.04643498  0.81113202    -0.94700
O701        O  0.78154246  0.00577959  0.83769454    -0.93100
O702        O  0.67564524  0.95457876  0.83012483    -0.93500
O703        O  0.67754397  0.99530473  0.78788159    -0.92200
C704        C  0.78882984  0.02320113  0.81743780     1.16800
H705        H  0.69372149  0.97005359  0.88337365     0.32800
H706        H  0.66958725  0.06245762  0.81485153     0.43600
H707        H  0.77724425  0.05699036  0.86837600     0.37100
H708        H  0.68170746  0.08002445  0.93181625     0.33600
H709        H  0.61577066  0.00071865  0.80954350     0.25400
H710        H  0.63900769  0.14115317  0.88338855     0.31300
H711        H  0.71987980  0.13928978  0.91692163     0.37200
H712        H  0.65594819  0.94746448  0.82544173     0.31700
H713        H  0.73827218  0.94219819  0.86977147     0.30600
H714        H  0.80182026  0.98002927  0.89028483     0.32300
H715        H  0.80063208  0.08208615  0.91041998     0.31200
H716        H  0.68643359  0.01307545  0.77988882     0.35200
H717        H  0.73544432  0.04338804  0.77278850     0.28000
H718        H  0.65728366  0.00489209  0.97557459     0.32200
H719        H  0.75621640  0.09781425  0.96733861     0.35000
H720        H  0.73914470  0.95488557  0.83841116     0.27700
H721        H  0.71111183  0.06636330  0.77030403     0.40500
H722        H  0.60261234  0.06927791  0.86225091     0.30600
H723        H  0.61663803  0.03208992  0.82229064     0.38200
H724        H  0.79149126  0.05321930  0.92559649     0.30100
H725        H  0.65869352  0.13410150  0.91003602     0.30100
H726        H  0.67754111  0.03201711  0.97975821     0.30400
Zr727      Zr  0.91935347  0.67831607  0.01612533     2.17500
O728        O  0.97205376  0.67651602  0.01331206    -0.52000
O729        O  0.91143844  0.63682967  0.98476458    -0.75200
O730        O  0.93941770  0.63882028  0.04343040    -0.82000
O731        O  0.92139141  0.74581940  0.97075696    -0.83700
O732        O  0.91231493  0.62871720  0.08311034    -0.79300
O733        O  0.94322663  0.70210287  0.97530931    -0.91000
O734        O  0.86306863  0.62917939  0.98069846    -0.76900
O735        O  0.87732132  0.65225722  0.03074994    -0.86400
O736        O  0.88122058  0.69657152  0.98701413    -0.86100
O737        O  0.91402014  0.68785191  0.06704048    -0.72900
O738        O  0.91711232  0.72884415  0.02744619    -0.85000
Zr739      Zr  0.83016423  0.73151864  0.06335774     2.26400
Zr740      Zr  0.87091779  0.66208417  0.08125355     2.06300
Zr741      Zr  0.87783805  0.74668869  0.99925397     2.10000
Zr742      Zr  0.83923370  0.67091851  0.00183721     1.78800
O743        O  0.89967286  0.79350239  0.98875314    -0.93800
O744        O  0.80684753  0.63107731  0.01406619    -0.41600
O745        O  0.83488818  0.72157002  0.01266122    -0.78200
O746        O  0.83199424  0.68063061  0.05222444    -0.96900
O747        O  0.86825037  0.71252893  0.09204098    -0.90200
O748        O  0.87247101  0.75722080  0.04948438    -0.93100
C749        C  0.88946820  0.62179949  0.97657768     1.00700
C750        C  0.94098763  0.72746198  0.96418336     1.13600
C751        C  0.93446913  0.62465592  0.06668904     1.04400
O752        O  0.84899378  0.61413513  0.08138074    -0.95200
O753        O  0.82691722  0.66412131  0.11148707    -0.91000
O754        O  0.80461840  0.70650599  0.10091913    -0.84100
C755        C  0.80630806  0.68262615  0.11472496     1.11000
O756        O  0.96289539  0.74263715  0.07390900    -0.97200
Zr757      Zr  0.91047819  0.73817734  0.07791816     1.88900
O758        O  0.83656994  0.75973342  0.10742129    -0.73900
O759        O  0.88753986  0.65956515  0.13117571    -0.53100
O760        O  0.93335891  0.72047607  0.12185048    -0.97800
O761        O  0.92669863  0.78825413  0.07353483    -0.55000
O762        O  0.88469510  0.76190135  0.11714329    -0.74400
C763        C  0.85813695  0.76687262  0.12354301     0.98000
O764        O  0.77782112  0.73543351  0.05765039    -0.63200
O765        O  0.85417397  0.74578682  0.95214796    -0.58000
O766        O  0.81463853  0.77788147  0.04377077    -0.94700
O767        O  0.84300841  0.78526406  0.00446703    -0.93100
O768        O  0.83328055  0.67636810  0.94980345    -0.93500
O769        O  0.78933119  0.67967830  0.98762900    -0.92200
C770        C  0.82250908  0.79266363  0.02160831     1.16800
H771        H  0.88514154  0.69375759  0.96669911     0.32800
H772        H  0.81396807  0.67146220  0.05751144     0.43600
H773        H  0.87067805  0.77769851  0.05307204     0.37100
H774        H  0.93064534  0.68096746  0.07756229     0.33600
H775        H  0.80073927  0.62288579  0.99521092     0.25400
H776        H  0.88765666  0.63867439  0.13578290     0.31300
H777        H  0.93677610  0.73795336  0.13379437     0.37200
H778        H  0.82681751  0.65710491  0.94291149     0.31700
H779        H  0.83671123  0.75787404  0.95445029     0.30600
H780        H  0.89125520  0.79931616  0.96996500     0.32300
H781        H  0.90985044  0.80022428  0.07892063     0.31200
H782        H  0.78094312  0.69048680  0.00407699     0.35200
H783        H  0.77477517  0.74039533  0.03706478     0.28000
H784        H  0.97660349  0.65733490  0.00496040     0.32200
H785        H  0.96915818  0.75423079  0.09083487     0.35000
H786        H  0.86705745  0.75725156  0.93945959     0.27700
H787        H  0.77035224  0.71539317  0.05910817     0.40500
H788        H  0.85904330  0.60349587  0.06578194     0.30600
H789        H  0.81962731  0.61616720  0.02244724     0.38200
H790        H  0.92903395  0.79130096  0.05248135     0.30100
H791        H  0.90822977  0.66513437  0.13041122     0.30100
H792        H  0.97904523  0.67568591  0.03353800     0.30400
C793        C  0.76999984  0.85613358  0.02395210    -0.11500
C794        C  0.77955541  0.87241374  0.00013554     0.05700
C795        C  0.80294306  0.86221923  0.98381642    -0.10300
C796        C  0.81662385  0.83653164  0.99099680    -0.11900
C797        C  0.80745662  0.82014528  0.01487265    -0.01700
C798        C  0.78397875  0.83025217  0.03139544    -0.10800
C799        C  0.76519590  0.89953421  0.99096251     0.05700
H800        H  0.81039826  0.87394256  0.96498180     0.07600
H801        H  0.83442870  0.82950733  0.97755801     0.11100
H802        H  0.77632085  0.81812099  0.04987484     0.11300
H803        H  0.75192858  0.86351763  0.03682424     0.07600
C804        C  0.73511996  0.90064340  0.98639208    -0.11500
C805        C  0.72279751  0.92401612  0.97148333    -0.10800
C806        C  0.74048507  0.94640064  0.96091092    -0.01700
C807        C  0.77013794  0.94623815  0.96759479    -0.11900
C808        C  0.78229534  0.92321591  0.98257794    -0.10300
H809        H  0.72149342  0.88257775  0.99253225     0.07600
H810        H  0.69990426  0.92360261  0.96651947     0.11300
H811        H  0.78423597  0.96340777  0.96005571     0.11100
H812        H  0.80544836  0.92315316  0.98622805     0.07600
C813        C  0.67643900  0.20644029  0.69325100    -0.11500
C814        C  0.65509748  0.18867918  0.70590907     0.05700
C815        C  0.62888199  0.18461080  0.69087314    -0.10300
C816        C  0.62443915  0.19753380  0.66379885    -0.11900
C817        C  0.64623407  0.21454026  0.65091089    -0.01700
C818        C  0.67220067  0.21890175  0.66608543    -0.10800
C819        C  0.66117262  0.17321407  0.73368989     0.05700
H820        H  0.61203461  0.17090437  0.69966786     0.07600
H821        H  0.60402853  0.19395731  0.65281029     0.11100
H822        H  0.68913618  0.23248420  0.65722085     0.11300
H823        H  0.69657815  0.21088106  0.70439036     0.07600
C824        C  0.68927237  0.16331409  0.73936109    -0.11500
C825        C  0.69542297  0.14761312  0.76425321    -0.10800
C826        C  0.67363886  0.14066092  0.78435141    -0.01700
C827        C  0.64556069  0.15119624  0.77934646    -0.11900
C828        C  0.63938734  0.16730291  0.75425661    -0.10300
H829        H  0.70658857  0.16675274  0.72401590     0.07600
H830        H  0.71737418  0.14009593  0.76720567     0.11300
H831        H  0.62823448  0.14625386  0.79428946     0.11100
H832        H  0.61753894  0.17488903  0.75086689     0.07600
C833        C  0.62060826  0.44972505  0.43735481    -0.11500
C834        C  0.59259871  0.46141674  0.43761827     0.05700
C835        C  0.57071035  0.44643204  0.45261253    -0.10300
C836        C  0.57650642  0.42023719  0.46647767    -0.11900
C837        C  0.60444375  0.40837495  0.46602421    -0.01700
C838        C  0.62647724  0.42358848  0.45144362    -0.10800
C839        C  0.58568348  0.48805462  0.42087732     0.05700
H840        H  0.54898136  0.45498500  0.45369154     0.07600
H841        H  0.55908987  0.40940667  0.47781406     0.11100
H842        H  0.64824760  0.41510981  0.45060139     0.11300
H843        H  0.63786618  0.46039609  0.42564796     0.07600
C844        C  0.60520358  0.51150900  0.41900225    -0.11500
C845        C  0.59882288  0.53561656  0.40171771    -0.10800
C846        C  0.57280946  0.53668175  0.38597270    -0.01700
C847        C  0.55312704  0.51350453  0.38858089    -0.11900
C848        C  0.55950464  0.48960913  0.40561412    -0.10300
H849        H  0.62544075  0.51115458  0.43078859     0.07600
H850        H  0.61439534  0.55312005  0.40033603     0.11300
H851        H  0.53282967  0.51335378  0.37688319     0.11100
H852        H  0.54416265  0.47186082  0.40605864     0.07600
C853        C  0.68602968  0.63365614  0.17591228    -0.11500
C854        C  0.70149723  0.65962778  0.18011942     0.05700
C855        C  0.68963787  0.68067381  0.19861922    -0.10300
C856        C  0.66310280  0.67603494  0.21230879    -0.11900
C857        C  0.64771994  0.65006017  0.20822130    -0.01700
C858        C  0.65957012  0.62885087  0.18995063    -0.10800
C859        C  0.72951587  0.66520938  0.16495004     0.05700
H860        H  0.70108366  0.70067672  0.20300174     0.07600
H861        H  0.65494771  0.69264084  0.22664321     0.11100
H862        H  0.64831859  0.60856561  0.18637440     0.11300
H863        H  0.69417158  0.61713439  0.16149950     0.07600
C864        C  0.74943422  0.64286485  0.15934625    -0.11500
C865        C  0.77524080  0.64842775  0.14423222    -0.10800
C866        C  0.78161997  0.67645363  0.13440956    -0.01700
C867        C  0.76212891  0.69884161  0.14097044    -0.11900
C868        C  0.73646353  0.69328344  0.15571158    -0.10300
H869        H  0.74506271  0.62104190  0.16655331     0.07600
H870        H  0.78968971  0.63069505  0.13948745     0.11300
H871        H  0.76621811  0.72079354  0.13391539     0.11100
H872        H  0.72166016  0.71102252  0.15908217     0.07600
C873        C  0.44952013  0.45981578  0.57703173    -0.11500
C874        C  0.46165334  0.44102465  0.59754668     0.05700
C875        C  0.44639688  0.43565662  0.62326394    -0.10300
C876        C  0.41921552  0.44811130  0.62792232    -0.11900
C877        C  0.40664138  0.46593092  0.60681324    -0.01700
C878        C  0.42230145  0.47193374  0.58150584    -0.10800
C879        C  0.48869522  0.42509935  0.59073677     0.05700
H880        H  0.45501397  0.42106213  0.63933988     0.07600
H881        H  0.40778394  0.44333766  0.64777434     0.11100
H882        H  0.41360592  0.48623194  0.56518274     0.11300
H883        H  0.46096517  0.46488699  0.55725951     0.07600
C884        C  0.49251691  0.41388327  0.56284075    -0.11500
C885        C  0.51656631  0.39724097  0.55618423    -0.10800
C886        C  0.53765378  0.39099571  0.57724774    -0.01700
C887        C  0.53434898  0.40277009  0.60511063    -0.11900
C888        C  0.51000933  0.41963720  0.61181650    -0.10300
H889        H  0.47634423  0.41713750  0.54622517     0.07600
H890        H  0.51817088  0.38869199  0.53443415     0.11300
H891        H  0.55011515  0.39837965  0.62183727     0.11100
H892        H  0.50771737  0.42818305  0.63349686     0.07600
C893        C  0.43927183  0.62084587  0.44729465    -0.11500
C894        C  0.44430930  0.59422009  0.46098914     0.05700
C895        C  0.46188961  0.57379185  0.44688200    -0.10300
C896        C  0.47344569  0.57952734  0.41956417    -0.11900
C897        C  0.46820281  0.60605353  0.40587891    -0.01700
C898        C  0.45128986  0.62678423  0.42017720    -0.10800
C899        C  0.42973297  0.58698214  0.48883309     0.05700
H900        H  0.46679084  0.55329616  0.45695804     0.07600
H901        H  0.48696678  0.56338974  0.40937408     0.11100
H902        H  0.44697920  0.64746133  0.41016900     0.11300
H903        H  0.42546161  0.63688382  0.45718890     0.07600
C904        C  0.42448931  0.60813200  0.51020992    -0.11500
C905        C  0.40812999  0.60146884  0.53492824    -0.10800
C906        C  0.39681207  0.57350072  0.53874376    -0.01700
C907        C  0.40346375  0.55213466  0.51806879    -0.11900
C908        C  0.41941089  0.55880679  0.49346565    -0.10300
H909        H  0.43254609  0.62997275  0.50757300     0.07600
H910        H  0.40341268  0.61841316  0.55038361     0.11300
H911        H  0.39535099  0.53024401  0.52023461     0.11100
H912        H  0.42251856  0.54200940  0.47745396     0.07600
C913        C  0.43991867  0.75020995  0.11767375    -0.11500
C914        C  0.46891015  0.75841787  0.12193897     0.05700
C915        C  0.48266941  0.77514006  0.10055745    -0.10300
C916        C  0.46771357  0.78317258  0.07534286    -0.11900
C917        C  0.43889877  0.77420798  0.07089000    -0.01700
C918        C  0.42517964  0.75794371  0.09258849    -0.10800
C919        C  0.48454747  0.74786069  0.14800664     0.05700
H920        H  0.50498107  0.78184442  0.10327529     0.07600
H921        H  0.47891044  0.79566039  0.05901777     0.11100
H922        H  0.40298767  0.75075688  0.09004112     0.11300
H923        H  0.42877538  0.73689847  0.13338179     0.07600
C924        C  0.47011117  0.74644862  0.17470304    -0.11500
C925        C  0.48186496  0.73099634  0.19771122    -0.10800
C926        C  0.50864481  0.71720436  0.19482797    -0.01700
C927        C  0.52442464  0.72069595  0.16916096    -0.11900
C928        C  0.51237922  0.73580729  0.14580815    -0.10300
H929        H  0.44897789  0.75609321  0.17732997     0.07600
H930        H  0.46947235  0.72880701  0.21745548     0.11300
H931        H  0.54506624  0.71005642  0.16647055     0.11100
H932        H  0.52398570  0.73641136  0.12550660     0.07600
C933        C  0.49102456  0.91771711  0.88956850    -0.11500
C934        C  0.51114157  0.92435962  0.91157891     0.05700
C935        C  0.50495501  0.91550564  0.93991828    -0.10300
C936        C  0.48013616  0.89946016  0.94592242    -0.11900
C937        C  0.46078496  0.89139597  0.92374880    -0.01700
C938        C  0.46606739  0.90138389  0.89559241    -0.10800
C939        C  0.53913986  0.93916751  0.90516695     0.05700
H940        H  0.51991608  0.91984659  0.95743234     0.07600
H941        H  0.47669774  0.89249168  0.96799405     0.11100
H942        H  0.45154552  0.89569265  0.87807709     0.11300
H943        H  0.49479570  0.92473180  0.86758749     0.07600
C944        C  0.55429313  0.93334381  0.87944339    -0.11500
C945        C  0.58134697  0.94606863  0.87427280    -0.10800
C946        C  0.59406078  0.96452024  0.89492050    -0.01700
C947        C  0.57892018  0.97043670  0.92053211    -0.11900
C948        C  0.55173605  0.95813896  0.92548067    -0.10300
H949        H  0.54554916  0.91848834  0.86352963     0.07600
H950        H  0.59248208  0.94120217  0.85427305     0.11300
H951        H  0.58783500  0.98510594  0.93655670     0.11100
H952        H  0.54051428  0.96368820  0.94523341     0.07600
C953        C  0.32002093  0.70610542  0.80399863    -0.11500
C954        C  0.34122430  0.68841303  0.79131528     0.05700
C955        C  0.36744235  0.68437695  0.80619112    -0.10300
C956        C  0.37212574  0.69732804  0.83324691    -0.11900
C957        C  0.35057439  0.71435179  0.84620682    -0.01700
C958        C  0.32455663  0.71873793  0.83112131    -0.10800
C959        C  0.33520723  0.67307068  0.76351661     0.05700
H960        H  0.38410339  0.67065701  0.79724592     0.07600
H961        H  0.39249687  0.69370873  0.84419947     0.11100
H962        H  0.30778613  0.73231887  0.84010230     0.11300
H963        H  0.29983012  0.71026408  0.79291434     0.07600
C964        C  0.30752212  0.66167594  0.75829952    -0.11500
C965        C  0.30158921  0.64632507  0.73305552    -0.10800
C966        C  0.32324546  0.64138357  0.71219315    -0.01700
C967        C  0.35091369  0.65317616  0.71701812    -0.11900
C968        C  0.35683098  0.66888200  0.74245028    -0.10300
H969        H  0.29048073  0.66386156  0.77417729     0.07600
H970        H  0.27997847  0.63755509  0.73041731     0.11300
H971        H  0.36813461  0.64961439  0.70159790     0.11100
H972        H  0.37836316  0.67759724  0.74570717     0.07600
C973        C  0.98401108  0.73125718  0.89476052    -0.11500
C974        C  0.99147826  0.76079670  0.89447014     0.05700
C975        C  0.98627028  0.77751732  0.91929208    -0.10300
C976        C  0.97137081  0.76588160  0.94266596    -0.11900
C977        C  0.96189763  0.73704099  0.94213442    -0.01700
C978        C  0.96934360  0.71939763  0.91856552    -0.10800
C979        C  0.00074925  0.77545114  0.86746952     0.05700
H980        H  0.99236115  0.80015021  0.91998982     0.07600
H981        H  0.96610653  0.77983311  0.96074215     0.11100
H982        H  0.96205268  0.69712912  0.91766772     0.11300
H983        H  0.98770129  0.71789549  0.87588657     0.07600
C984        C  0.02141503  0.76354271  0.84863588    -0.11500
C985        C  0.02920572  0.77812756  0.82313762    -0.10800
C986        C  0.01611886  0.80460066  0.81598650    -0.01700
C987        C  0.99536800  0.81614031  0.83489057    -0.11900
C988        C  0.98781445  0.80180739  0.86012793    -0.10300
H989        H  0.03165505  0.74318687  0.85375561     0.07600
H990        H  0.04518629  0.76861488  0.80896508     0.11300
H991        H  0.98475251  0.83642648  0.83025116     0.11100
H992        H  0.97132051  0.81124868  0.87376032     0.07600
C993        C  0.85925002  0.98677153  0.79860953    -0.11500
C994        C  0.86640880  0.99890675  0.77176782     0.05700
C995        C  0.84751614  0.01922759  0.75943681    -0.10300
C996        C  0.82229189  0.02766134  0.77417975    -0.11900
C997        C  0.81543205  0.01551618  0.80120785    -0.01700
C998        C  0.83430089  0.99496588  0.81309549    -0.10800
C999        C  0.89352218  0.98952948  0.75734707     0.05700
H1000       H  0.85245201  0.02882877  0.73869268     0.07600
H1001       H  0.80809321  0.04339827  0.76437881     0.11100
H1002       H  0.82988621  0.98508204  0.83383532     0.11300
H1003       H  0.87288263  0.97053067  0.80841778     0.07600
C1004       C  0.91830306  0.98488835  0.77427578    -0.11500
C1005       C  0.94182736  0.96998520  0.76310376    -0.10800
C1006       C  0.94154431  0.95996397  0.73448794    -0.01700
C1007       C  0.91814721  0.96708775  0.71647861    -0.11900
C1008       C  0.89412483  0.98170177  0.72791495    -0.10300
H1009       H  0.91888234  0.99147286  0.79675550     0.07600
H1010       H  0.95989495  0.96527835  0.77724702     0.11300
H1011       H  0.91757824  0.95965889  0.69426547     0.11100
H1012       H  0.87537674  0.98513205  0.71432550     0.07600
C1013       C  0.17060550  0.75722119  0.64059404    -0.11500
C1014       C  0.16917805  0.73247313  0.65832094     0.05700
C1015       C  0.15012528  0.73258161  0.68185195    -0.10300
C1016       C  0.13311965  0.75655554  0.68773816    -0.11900
C1017       C  0.13425918  0.78138089  0.67018304    -0.01700
C1018       C  0.15322933  0.78146206  0.64642998    -0.10800
C1019       C  0.18650098  0.70602796  0.65232520     0.05700
H1020       H  0.14776957  0.71376153  0.69552843     0.07600
H1021       H  0.11864445  0.75526348  0.70606704     0.11100
H1022       H  0.15465177  0.80015120  0.63245535     0.11300
H1023       H  0.18521861  0.75789002  0.62234194     0.07600
C1024       C  0.19065244  0.69605794  0.62391906    -0.11500
C1025       C  0.20474358  0.66980630  0.61870053    -0.10800
C1026       C  0.21496573  0.65286943  0.64177751    -0.01700
C1027       C  0.21123018  0.66313970  0.67014287    -0.11900
C1028       C  0.19736602  0.68939336  0.67531732    -0.10300
H1029       H  0.18230365  0.70812632  0.60573835     0.07600
H1030       H  0.20742035  0.66269206  0.59655405     0.11300
H1031       H  0.21918718  0.65099166  0.68846004     0.11100
H1032       H  0.19511062  0.69664933  0.69746555     0.07600
C1033       C  0.19754049  0.82233118  0.78265410    -0.11500
C1034       C  0.20992542  0.84182828  0.80264323     0.05700
C1035       C  0.19420920  0.86678765  0.81002748    -0.10300
C1036       C  0.16691469  0.87196609  0.79788305    -0.11900
C1037       C  0.15441524  0.85209095  0.77843863    -0.01700
C1038       C  0.17006385  0.82723205  0.77097775    -0.10800
C1039       C  0.23818358  0.83518768  0.81697823     0.05700
H1040       H  0.20269236  0.88207828  0.82566456     0.07600
H1041       H  0.15542142  0.89139668  0.80395679     0.11100
H1042       H  0.16134016  0.81185298  0.75552575     0.11300
H1043       H  0.20913573  0.80323009  0.77584538     0.07600
C1044       C  0.24510171  0.80647794  0.82394744    -0.11500
C1045       C  0.26979169  0.80012211  0.84005754    -0.10800
C1046       C  0.28835088  0.82224309  0.84994296    -0.01700
C1047       C  0.28259418  0.85081739  0.84155718    -0.11900
C1048       C  0.25772932  0.85723436  0.82528662    -0.10300
H1049       H  0.23065608  0.78886141  0.81831741     0.07600
H1050       H  0.27360663  0.77782162  0.84596924     0.11300
H1051       H  0.29640017  0.86834977  0.84887076     0.11100
H1052       H  0.25347695  0.87954563  0.81981198     0.07600
C1053       C  0.67400234  0.73709529  0.35616373    -0.11500
C1054       C  0.68167652  0.75714776  0.33456456     0.05700
C1055       C  0.67401779  0.75111325  0.30579378    -0.10300
C1056       C  0.65766402  0.72673076  0.29896701    -0.11900
C1057       C  0.64816064  0.70779697  0.32072577    -0.01700
C1058       C  0.65740494  0.71253931  0.34928055    -0.10800
C1059       C  0.69570892  0.78528492  0.34175836     0.05700
H1060       H  0.67920564  0.76608336  0.28859887     0.07600
H1061       H  0.65110911  0.72356813  0.27668422     0.11100
H1062       H  0.65038875  0.69830912  0.36647807     0.11300
H1063       H  0.68005602  0.74085205  0.37847605     0.07600
C1064       C  0.68766013  0.80083686  0.36664214    -0.11500
C1065       C  0.69893106  0.82850833  0.37189370    -0.10800
C1066       C  0.71802111  0.84139801  0.35209799    -0.01700
C1067       C  0.72640657  0.82572283  0.32748950    -0.11900
C1068       C  0.71560866  0.79792328  0.32252775    -0.10300
H1069       H  0.67203652  0.79198893  0.38166031     0.07600
H1070       H  0.69227412  0.84007068  0.39113367     0.11300
H1071       H  0.74169687  0.83481147  0.31224109     0.11100
H1072       H  0.72278733  0.78636885  0.30348468     0.07600
C1073       C  0.85537090  0.82599296  0.25622841    -0.11500
C1074       C  0.83402894  0.82088620  0.23486832     0.05700
C1075       C  0.80624211  0.83211361  0.23955116    -0.10300
C1076       C  0.80018565  0.84857259  0.26404091    -0.11900
C1077       C  0.82176578  0.85495773  0.28465488    -0.01700
C1078       C  0.84933944  0.84294420  0.28079497    -0.10800
C1079       C  0.84071640  0.80551957  0.20706699     0.05700
H1080       H  0.78922026  0.82935824  0.22370781     0.07600
H1081       H  0.77854925  0.85717116  0.26623441     0.11100
H1082       H  0.86644713  0.84737920  0.29621046     0.11300
H1083       H  0.87689757  0.81725334  0.25384865     0.07600
C1084       C  0.86836503  0.80749967  0.19446342    -0.11500
C1085       C  0.87397631  0.79505118  0.16742048    -0.10800
C1086       C  0.85199842  0.78069387  0.15192416    -0.01700
C1087       C  0.82448670  0.77824768  0.16459343    -0.11900
C1088       C  0.81901801  0.79017910  0.19187501    -0.10300
H1089       H  0.88560832  0.81937486  0.20503675     0.07600
H1090       H  0.89549706  0.79710658  0.15842101     0.11300
H1091       H  0.80723663  0.76666228  0.15363322     0.11100
H1092       H  0.79768433  0.78722835  0.20101494     0.07600
C1093       C  0.91719284  0.93964989  0.50167367    -0.11500
C1094       C  0.92204595  0.91093950  0.51023287     0.05700
C1095       C  0.91175883  0.88848012  0.49217410    -0.10300
C1096       C  0.89597757  0.89469084  0.46696295    -0.11900
C1097       C  0.89008630  0.92346942  0.45941048    -0.01700
C1098       C  0.90153384  0.94578662  0.47669480    -0.10800
C1099       C  0.93646060  0.90492964  0.53857634     0.05700
H1100       H  0.91547852  0.86609647  0.49774240     0.07600
H1101       H  0.88730610  0.87702637  0.45416028     0.11100
H1102       H  0.89745720  0.96821762  0.47148916     0.11300
H1103       H  0.92426622  0.95760913  0.51498465     0.07600
C1104       C  0.95787659  0.92380405  0.54948608    -0.11500
C1105       C  0.96981188  0.91963830  0.57694335    -0.10800
C1106       C  0.96121482  0.89609923  0.59408217    -0.01700
C1107       C  0.94033156  0.87680149  0.58308260    -0.11900
C1108       C  0.92790941  0.88129923  0.55577914    -0.10300
H1109       H  0.96566038  0.94181263  0.53674261     0.07600
H1110       H  0.98638696  0.93448718  0.58447324     0.11300
H1111       H  0.93337900  0.85838172  0.59574480     0.11100
H1112       H  0.91118721  0.86654987  0.54845000     0.07600
C1113       C  0.73711861  0.15025022  0.51586017    -0.11500
C1114       C  0.74031443  0.14642539  0.48585533     0.05700
C1115       C  0.73135440  0.16855525  0.46723852    -0.10300
C1116       C  0.71707348  0.19268556  0.47796105    -0.11900
C1117       C  0.71167329  0.19559213  0.50766643    -0.01700
C1118       C  0.72291492  0.17480580  0.52674603    -0.10800
C1119       C  0.74883199  0.11823192  0.47316106     0.05700
H1120       H  0.73405156  0.16642191  0.44407205     0.07600
H1121       H  0.70918464  0.20860706  0.46277425     0.11100
H1122       H  0.71910952  0.17659648  0.54977148     0.11300
H1123       H  0.74385102  0.13346442  0.53064992     0.07600
C1124       C  0.77375549  0.10322582  0.48185836    -0.11500
C1125       C  0.78150209  0.07721045  0.46804100    -0.10800
C1126       C  0.76421636  0.06578277  0.44559552    -0.01700
C1127       C  0.73891087  0.08066502  0.43778135    -0.11900
C1128       C  0.73140516  0.10637136  0.45130333    -0.10300
H1129       H  0.78749511  0.11194157  0.49876537     0.07600
H1130       H  0.80105819  0.06627295  0.47466496     0.11300
H1131       H  0.72480617  0.07270149  0.42080363     0.11100
H1132       H  0.71176386  0.11711985  0.44454457     0.07600
C1133       C  0.07773447  0.48894622  0.72069852    -0.11500
C1134       C  0.10296757  0.49377305  0.73694848     0.05700
C1135       C  0.10364748  0.48503894  0.76604217    -0.10300
C1136       C  0.08032666  0.46952664  0.77785333    -0.11900
C1137       C  0.05630808  0.46244688  0.76056314    -0.01700
C1138       C  0.05479162  0.47320109  0.73227924    -0.10800
C1139       C  0.12965326  0.50330891  0.72197909     0.05700
H1140       H  0.12294724  0.48837465  0.77893922     0.07600
H1141       H  0.08193719  0.46134275  0.79970456     0.11100
H1142       H  0.03630530  0.46830106  0.71867007     0.11300
H1143       H  0.07650825  0.49584708  0.69837100     0.07600
C1144       C  0.13739047  0.48943821  0.69615927    -0.11500
C1145       C  0.16291560  0.49660900  0.68202022    -0.10800
C1146       C  0.18152051  0.51802955  0.69316827    -0.01700
C1147       C  0.17368215  0.53235542  0.71887930    -0.11900
C1148       C  0.14801102  0.52484000  0.73334420    -0.10300
H1149       H  0.12390636  0.47243706  0.68714673     0.07600
H1150       H  0.16804137  0.48518129  0.66223351     0.11300
H1151       H  0.18754032  0.54898218  0.72798911     0.11100
H1152       H  0.14245721  0.53581103  0.75326766     0.07600
C1153       C  0.84447991  0.23534881  0.81047485    -0.11500
C1154       C  0.82903233  0.23336072  0.83641803     0.05700
C1155       C  0.83024384  0.25670897  0.85602329    -0.10300
C1156       C  0.84703078  0.28136345  0.84982014    -0.11900
C1157       C  0.86291229  0.28296993  0.82394321    -0.01700
C1158       C  0.86096983  0.25973052  0.80426973    -0.10800
C1159       C  0.81254672  0.20646671  0.84275215     0.05700
H1160       H  0.81829702  0.25585601  0.87611981     0.07600
H1161       H  0.84796574  0.29884151  0.86540698     0.11100
H1162       H  0.87281881  0.25989429  0.78409860     0.11300
H1163       H  0.84449187  0.21762028  0.79513987     0.07600
C1164       C  0.79728060  0.19221412  0.82053487    -0.11500
C1165       C  0.78376917  0.16566203  0.82550389    -0.10800
C1166       C  0.78489806  0.15280684  0.85292744    -0.01700
C1167       C  0.79969269  0.16728505  0.87536017    -0.11900
C1168       C  0.81344700  0.19380884  0.87029722    -0.10300
H1169       H  0.79576713  0.20164097  0.79919010     0.07600
H1170       H  0.77206954  0.15542045  0.80791830     0.11300
H1171       H  0.80084076  0.15801658  0.89680153     0.11100
H1172       H  0.82534219  0.20406722  0.88773216     0.07600
C1173       C  0.94131013  0.50306345  0.91863999    -0.11500
C1174       C  0.91252391  0.50945273  0.92577204     0.05700
C1175       C  0.89080814  0.48913110  0.91853012    -0.10300
C1176       C  0.89768893  0.46376004  0.90326553    -0.11900
C1177       C  0.92639295  0.45834566  0.89502677    -0.01700
C1178       C  0.94813899  0.47783560  0.90381916    -0.10800
C1179       C  0.90561743  0.53778503  0.93958104     0.05700
H1180       H  0.86845348  0.49308669  0.92413854     0.07600
H1181       H  0.88046527  0.44920598  0.89669657     0.11100
H1182       H  0.97053865  0.47429888  0.89799370     0.11300
H1183       H  0.95864956  0.51817773  0.92329066     0.07600
C1184       C  0.92543988  0.55083207  0.95877049    -0.11500
C1185       C  0.92043752  0.57836908  0.96996944    -0.10800
C1186       C  0.89511862  0.59341505  0.96292331    -0.01700
C1187       C  0.87483440  0.58026566  0.94436816    -0.11900
C1188       C  0.88015485  0.55284313  0.93258745    -0.10300
H1189       H  0.94489404  0.53971381  0.96536212     0.07600
H1190       H  0.93614707  0.58761224  0.98478038     0.11300
H1191       H  0.85504919  0.59134218  0.93869099     0.11100
H1192       H  0.86459745  0.54374091  0.91757186     0.07600
C1193       C  0.74444676  0.35941879  0.66872453    -0.11500
C1194       C  0.76383672  0.33725819  0.67642134     0.05700
C1195       C  0.75667311  0.30865854  0.66894829    -0.10300
C1196       C  0.73156671  0.30244053  0.65337251    -0.11900
C1197       C  0.71283531  0.32461336  0.64448062    -0.01700
C1198       C  0.71913408  0.35314200  0.65296868    -0.10800
C1199       C  0.79207517  0.34361068  0.69092433     0.05700
H1200       H  0.77111698  0.29102844  0.67399411     0.07600
H1201       H  0.72742400  0.28017848  0.64725208     0.11100
H1202       H  0.70528841  0.37071061  0.64626099     0.11300
H1203       H  0.74906378  0.38166872  0.67445435     0.07600
C1204       C  0.80833522  0.36836537  0.68370538    -0.11500
C1205       C  0.83564132  0.37322028  0.69602952    -0.10800
C1206       C  0.84747969  0.35324259  0.71553508    -0.01700
C1207       C  0.83125485  0.32863941  0.72290653    -0.11900
C1208       C  0.80381994  0.32401775  0.71097666    -0.10300
H1209       H  0.80024792  0.38371663  0.66807683     0.07600
H1210       H  0.84762266  0.39249691  0.69012800     0.11300
H1211       H  0.83947927  0.31329170  0.73850390     0.11100
H1212       H  0.79172793  0.30508168  0.71762775     0.07600
C1213       C  0.08158573  0.44071572  0.99538613    -0.11500
C1214       C  0.07553574  0.41187734  0.98776054     0.05700
C1215       C  0.08383377  0.38983895  0.00702834    -0.10300
C1216       C  0.09886492  0.39649505  0.03261846    -0.11900
C1217       C  0.10595418  0.42530858  0.03937920    -0.01700
C1218       C  0.09638501  0.44731948  0.02082999    -0.10800
C1219       C  0.06159907  0.40521004  0.95933230     0.05700
H1220       H  0.07908649  0.36741705  0.00215111     0.07600
H1221       H  0.10597406  0.37904630  0.04643097     0.11100
H1222       H  0.10129901  0.46979282  0.02540382     0.11300
H1223       H  0.07600067  0.45831897  0.98110073     0.07600
C1224       C  0.04115047  0.42425387  0.94747018    -0.11500
C1225       C  0.02946142  0.41933628  0.92004660    -0.10800
C1226       C  0.03740960  0.39493210  0.90382680    -0.01700
C1227       C  0.05732696  0.37543724  0.91578770    -0.11900
C1228       C  0.06948169  0.38064776  0.94313605    -0.10300
H1229       H  0.03392257  0.44298787  0.95946067     0.07600
H1230       H  0.01364163  0.43441709  0.91178245     0.11300
H1231       H  0.06376608  0.35636112  0.90385141     0.11100
H1232       H  0.08546089  0.36571790  0.95130734     0.07600
C1233       C  0.04838983  0.56173456  0.12412863    -0.11500
C1234       C  0.03401115  0.55578894  0.09792177     0.05700
C1235       C  0.04713521  0.53680938  0.07809206    -0.10300
C1236       C  0.07428749  0.52504466  0.08374834    -0.11900
C1237       C  0.08882982  0.53138540  0.10967373    -0.01700
C1238       C  0.07541392  0.54947196  0.13003672    -0.10800
C1239       C  0.00659159  0.57083215  0.09019737     0.05700
H1240       H  0.03646180  0.53103666  0.05803900     0.07600
H1241       H  0.08371588  0.51056132  0.06795608     0.21900
H1242       H  0.08606883  0.55457086  0.15029220     0.11300
H1243       H  0.03918857  0.57650573  0.13974815     0.07600
C1244       C  0.98566439  0.57808611  0.11114275    -0.11500
C1245       C  0.96117683  0.59435474  0.10357195    -0.10800
C1246       C  0.95718888  0.60357754  0.07490701    -0.01700
C1247       C  0.97757071  0.59524829  0.05396258    -0.11900
C1248       C  0.00189925  0.57938403  0.06149109    -0.10300
H1249       H  0.98840746  0.57157327  0.13342978     0.07600
H1250       H  0.94602985  0.60060796  0.12026251     0.11300
H1251       H  0.97532023  0.60189789  0.03164255     0.11100
H1252       H  0.01764658  0.57487832  0.04480851     0.07600
C1253       C  0.35028178  0.48431721  0.23368190    -0.11500
C1254       C  0.34998806  0.51337713  0.24262692     0.05700
C1255       C  0.32439504  0.52930345  0.24012759    -0.10300
C1256       C  0.30024020  0.51727248  0.22670651    -0.11900
C1257       C  0.30112258  0.48899816  0.21574147    -0.01700
C1258       C  0.32584568  0.47211505  0.22032377    -0.10800
C1259       C  0.37692506  0.52852066  0.25090582     0.05700
H1260       H  0.32363388  0.55163848  0.24718037     0.07600
H1261       H  0.28130154  0.53059931  0.22349211     0.11100
H1262       H  0.32700490  0.45036052  0.21170727     0.11300
H1263       H  0.36992405  0.47175904  0.23526705     0.07600
C1264       C  0.39511398  0.51806359  0.27277223    -0.11500
C1265       C  0.42029605  0.53334661  0.28036139    -0.10800
C1266       C  0.42776074  0.55905845  0.26586382    -0.01700
C1267       C  0.40947119  0.56912989  0.24379599    -0.11900
C1268       C  0.38441380  0.55407429  0.23646275    -0.10300
H1269       H  0.38963018  0.49836841  0.28416617     0.07600
H1270       H  0.43393078  0.52499891  0.29742325     0.11300
H1271       H  0.41442308  0.58877555  0.23208263     0.11100
H1272       H  0.37087954  0.56232869  0.21924773     0.07600
C1273       C  0.26530212  0.66997924  0.03152294    -0.11500
C1274       C  0.25727475  0.64628783  0.01424976     0.05700
C1275       C  0.26110449  0.64818618  0.98409696    -0.10300
C1276       C  0.27490790  0.67248769  0.97188676    -0.11900
C1277       C  0.28508788  0.69498313  0.98977835    -0.01700
C1278       C  0.27898324  0.69391856  0.01949462    -0.10800
C1279       C  0.24763943  0.61915175  0.02863377     0.05700
H1280       H  0.25498434  0.63025464  0.97026304     0.07600
H1281       H  0.27923776  0.67282661  0.94889309     0.11100
H1282       H  0.28597072  0.71119213  0.03378676     0.11300
H1283       H  0.26197478  0.66950650  0.05469267     0.07600
C1284       C  0.26297194  0.60942759  0.05289649    -0.11500
C1285       C  0.25383099  0.58516953  0.06812343    -0.10800
C1286       C  0.22905004  0.56953580  0.05957600    -0.01700
C1287       C  0.21379088  0.57889166  0.03493425    -0.11900
C1288       C  0.22314147  0.60342887  0.01946924    -0.10300
H1289       H  0.28223352  0.62071489  0.06020953     0.07600
H1290       H  0.26641118  0.57873474  0.08676932     0.11300
H1291       H  0.19474934  0.56727556  0.02761075     0.11100
H1292       H  0.21092725  0.61047557  0.00081099     0.07600
C1293       C  0.23714585  0.34835798  0.47766458    -0.11500
C1294       C  0.22567956  0.36629032  0.49939928     0.05700
C1295       C  0.19944953  0.35830378  0.51242357    -0.10300
C1296       C  0.18485224  0.33329304  0.50398755    -0.11900
C1297       C  0.19598125  0.31520772  0.48222498    -0.01700
C1298       C  0.22228267  0.32311008  0.46896823    -0.10800
C1299       C  0.24032909  0.39331540  0.50923575     0.05700
H1300       H  0.19027819  0.37132360  0.52958115     0.07600
H1301       H  0.16470272  0.32813122  0.51475939     0.11100
H1302       H  0.23151179  0.30963764  0.45221636     0.11300
H1303       H  0.25735193  0.35402158  0.46726080     0.07600
C1304       C  0.26978734  0.39382012  0.51704322    -0.11500
C1305       C  0.28154651  0.41784612  0.53173285    -0.10800
C1306       C  0.26388258  0.44144453  0.53890998    -0.01700
C1307       C  0.23514064  0.44168125  0.52915716    -0.11900
C1308       C  0.22360044  0.41806595  0.51431948    -0.10300
H1309       H  0.28316366  0.37501006  0.51343931     0.07600
H1310       H  0.30377037  0.41716770  0.53911642     0.11300
H1311       H  0.22117550  0.45978149  0.53406086     0.11100
H1312       H  0.20103272  0.41857635  0.50802634     0.07600
C1313       C  0.97987702  0.26356721  0.64725078    -0.11500
C1314       C  0.00106154  0.27532635  0.62883047     0.05700
C1315       C  0.01409565  0.30175072  0.63643445    -0.10300
C1316       C  0.00611463  0.31626257  0.66150049    -0.11900
C1317       C  0.98488735  0.30479775  0.68000676    -0.01700
C1318       C  0.97173360  0.27827245  0.67259232    -0.10800
C1319       C  0.01054028  0.26048953  0.60192217     0.05700
H1320       H  0.03096580  0.31111987  0.62315182     0.07600
H1321       H  0.01682087  0.33658028  0.66636216     0.11100
H1322       H  0.95540391  0.26880054  0.68644900     0.11300
H1323       H  0.96948273  0.24321366  0.64192739     0.07600
C1324       C  0.01676082  0.23071251  0.60142609    -0.11500
C1325       C  0.03109791  0.21842222  0.57761709    -0.10800
C1326       C  0.03950233  0.23586353  0.55423602    -0.01700
C1327       C  0.03121880  0.26499193  0.55389755    -0.11900
C1328       C  0.01667635  0.27706564  0.57726882    -0.10300
H1329       H  0.01226396  0.21739842  0.62011658     0.07600
H1330       H  0.03733794  0.19590417  0.57835651     0.11300
H1331       H  0.03708799  0.27880343  0.53593096     0.11100
H1332       H  0.01144146  0.29985059  0.57661634     0.07600
C1333       C  0.00863023  0.07597584  0.38730335    -0.11500
C1334       C  0.98860470  0.06862630  0.40911532     0.05700
C1335       C  0.99477994  0.07683209  0.43769997    -0.10300
C1336       C  0.01956698  0.09270630  0.44424602    -0.11900
C1337       C  0.03893264  0.10127780  0.42241142    -0.01700
C1338       C  0.03360507  0.09217540  0.39389835    -0.10800
C1339       C  0.96051399  0.05404370  0.40240618     0.05700
H1340       H  0.97979778  0.07213795  0.45504241     0.07600
H1341       H  0.02295780  0.09923231  0.46650450     0.11100
H1342       H  0.04800752  0.09858564  0.37659614     0.11300
H1343       H  0.00473838  0.06967484  0.36508329     0.07600
C1344       C  0.94495172  0.06086479  0.37718963    -0.11500
C1345       C  0.91739592  0.04906695  0.37229757    -0.10800
C1346       C  0.90459170  0.03054184  0.39270867    -0.01700
C1347       C  0.92025813  0.02340674  0.41768683    -0.11900
C1348       C  0.94795669  0.03473510  0.42231858    -0.10300
H1349       H  0.95369119  0.07593464  0.36157631     0.07600
H1350       H  0.90589889  0.05478717  0.35273619     0.11300
H1351       H  0.91130589  0.00858371  0.43343826     0.11100
H1352       H  0.95951318  0.02837155  0.44162866     0.07600
C1353       C  0.12957490  0.31312391  0.30675445    -0.11500
C1354       C  0.15367823  0.30550421  0.28984718     0.05700
C1355       C  0.17314765  0.28494360  0.30089759    -0.10300
C1356       C  0.16910349  0.27298575  0.32828177    -0.11900
C1357       C  0.14508212  0.28066786  0.34506187    -0.01700
C1358       C  0.12517369  0.30060238  0.33391501    -0.10800
C1359       C  0.15951518  0.32005013  0.26166033     0.05700
H1360       H  0.19151401  0.27781973  0.28833098     0.07600
H1361       H  0.18438062  0.25707549  0.33600191     0.11100
H1362       H  0.10635076  0.30675585  0.34636848     0.11300
H1363       H  0.11436800  0.32919627  0.29933776     0.07600
C1364       C  0.13691198  0.32984862  0.24368504    -0.11500
C1365       C  0.14294953  0.34592970  0.21868670    -0.10800
C1366       C  0.17167232  0.35236220  0.21121086    -0.01700
C1367       C  0.19414844  0.34124156  0.22827308    -0.11900
C1368       C  0.18819160  0.32556283  0.25319555    -0.10300
H1369       H  0.11455059  0.32563066  0.24920091     0.07600
H1370       H  0.12521623  0.35455573  0.20611100     0.11300
H1371       H  0.21653801  0.34592072  0.22310799     0.11100
H1372       H  0.20625085  0.31904542  0.26652343     0.07600
C1373       C  0.10658560  0.98530950  0.57302844    -0.11500
C1374       C  0.08522438  0.00577031  0.56601365     0.05700
C1375       C  0.05653447  0.00031195  0.57434812    -0.10300
C1376       C  0.04958328  0.97597073  0.59053329    -0.11900
C1377       C  0.07113926  0.95642593  0.59915707    -0.01700
C1378       C  0.09958851  0.96079758  0.58946285    -0.10800
C1379       C  0.09264345  0.03373454  0.55195145     0.05700
H1380       H  0.03953873  0.01564100  0.56972915     0.07600
H1381       H  0.02736906  0.97321966  0.59746601     0.11100
H1382       H  0.11664323  0.94615536  0.59581081     0.11300
H1383       H  0.12882233  0.98865207  0.56649246     0.07600
C1384       C  0.11804215  0.04888769  0.55948945    -0.11500
C1385       C  0.12349124  0.07649634  0.54832146    -0.10800
C1386       C  0.10342648  0.08968351  0.52979443    -0.01700
C1387       C  0.07829241  0.07438262  0.52193871    -0.11900
C1388       C  0.07312462  0.04666359  0.53261812    -0.10300
H1389       H  0.13332652  0.03978572  0.57465086     0.07600
H1390       H  0.14314484  0.08773691  0.55455263     0.11300
H1391       H  0.06279550  0.08366361  0.50707871     0.11100
H1392       H  0.05368174  0.03540505  0.52580990     0.07600
C1393       C  0.38829063  0.01214412  0.07620852    -0.11500
C1394       C  0.40962189  0.99138967  0.06972350     0.05700
C1395       C  0.43803322  0.99649844  0.07921714    -0.10300
C1396       C  0.44483538  0.02098651  0.09534938    -0.11900
C1397       C  0.42337602  0.04103563  0.10316910    -0.01700
C1398       C  0.39509865  0.03673929  0.09284254    -0.10800
C1399       C  0.40252559  0.96375842  0.05450840     0.05700
H1400       H  0.45501407  0.98095957  0.07531185     0.07600
H1401       H  0.46695480  0.02351853  0.10272519     0.11100
H1402       H  0.37808008  0.05169455  0.09854264     0.11300
H1403       H  0.36624358  0.00917122  0.06885563     0.07600
C1404       C  0.37593641  0.94957460  0.05911695    -0.11500
C1405       C  0.37038522  0.92252335  0.04659345    -0.10800
C1406       C  0.39148058  0.90881511  0.02960949    -0.01700
C1407       C  0.41785738  0.92308561  0.02466770    -0.11900
C1408       C  0.42317058  0.95031770  0.03665362    -0.10300
H1409       H  0.35966177  0.95896490  0.07301015     0.07600
H1410       H  0.34974782  0.91210933  0.05059629     0.11300
H1411       H  0.43424668  0.91343145  0.01104733     0.11100
H1412       H  0.44356166  0.96082666  0.03184308     0.07600
C1413       C  0.30749485  0.12767298  0.31721352    -0.11500
C1414       C  0.29154887  0.15254241  0.31031759     0.05700
C1415       C  0.30310931  0.17215524  0.29015794    -0.10300
C1416       C  0.33012814  0.16735769  0.27764857    -0.11900
C1417       C  0.34612942  0.14263836  0.28467206    -0.01700
C1418       C  0.33442268  0.12265832  0.30435059    -0.10800
C1419       C  0.26385722  0.15902551  0.32530998     0.05700
H1420       H  0.29120250  0.19125807  0.28394945     0.07600
H1421       H  0.33827550  0.18278061  0.26202707     0.11100
H1422       H  0.34625815  0.10334531  0.31005757     0.11300
H1423       H  0.29944614  0.11239038  0.33299583     0.07600
C1424       C  0.24374856  0.13709591  0.33215074    -0.11500
C1425       C  0.21883216  0.14342910  0.34825843    -0.10800
C1426       C  0.21368159  0.17179328  0.35784887    -0.01700
C1427       C  0.23329174  0.19375335  0.34995101    -0.11900
C1428       C  0.25799325  0.18745930  0.33403439    -0.10300
H1429       H  0.24748414  0.11500858  0.32538652     0.07600
H1430       H  0.20421515  0.12602826  0.35404718     0.11300
H1431       H  0.23005708  0.21590367  0.35682057     0.11100
H1432       H  0.27309957  0.20482812  0.32954093     0.07600
C1433       C  0.33127809  0.24448494  0.14204780    -0.11500
C1434       C  0.32569650  0.26533571  0.16364559     0.05700
C1435       C  0.33655247  0.26033867  0.19157644    -0.10300
C1436       C  0.35297539  0.23584245  0.19763857    -0.11900
C1437       C  0.35939694  0.21542156  0.17597843    -0.01700
C1438       C  0.34788141  0.21976828  0.14815986    -0.10800
C1439       C  0.30954179  0.29268075  0.15735794     0.05700
H1440       H  0.33324514  0.27590367  0.20874660     0.07600
H1441       H  0.36125446  0.23330869  0.21939020     0.11100
H1442       H  0.35238245  0.20454596  0.13094566     0.11300
H1443       H  0.32295904  0.24733148  0.12036760     0.07600
C1444       C  0.31286291  0.30729134  0.13086895    -0.11500
C1445       C  0.29917349  0.33390941  0.12599057    -0.10800
C1446       C  0.28209738  0.34680486  0.14760328    -0.01700
C1447       C  0.27840735  0.33197228  0.17384628    -0.11900
C1448       C  0.29170837  0.30527668  0.17855582    -0.10300
H1449       H  0.32662384  0.29853712  0.11412045     0.07600
H1450       H  0.30233914  0.34461723  0.10544142     0.11300
H1451       H  0.26488881  0.34084464  0.19075114     0.11100
H1452       H  0.28791885  0.29447202  0.19893643     0.07600
C1453       C  0.57734035  0.10975691  0.98953790    -0.11500
C1454       C  0.57208288  0.08838673  0.01063256     0.05700
C1455       C  0.58226226  0.06032087  0.00556186    -0.10300
C1456       C  0.59790484  0.05388079  0.98073520    -0.11900
C1457       C  0.60442954  0.07535206  0.96017794    -0.01700
C1458       C  0.59336136  0.10329094  0.96448556    -0.10800
C1459       C  0.55727523  0.09500778  0.03850231     0.05700
H1460       H  0.57916421  0.04337009  0.02136449     0.07600
H1461       H  0.60580533  0.03201727  0.97822687     0.11100
H1462       H  0.59801260  0.12032837  0.94915184     0.11300
H1463       H  0.56945186  0.13154145  0.99259897     0.07600
C1464       C  0.56248557  0.12114883  0.05327732    -0.11500
C1465       C  0.55041896  0.12606386  0.08063080    -0.10800
C1466       C  0.53318222  0.10479361  0.09394721    -0.01700
C1467       C  0.52760357  0.07891185  0.07896925    -0.11900
C1468       C  0.53927474  0.07419206  0.05156925    -0.10300
H1469       H  0.57648456  0.13751375  0.04405152     0.07600
H1470       H  0.55487826  0.14636443  0.09150355     0.11300
H1471       H  0.51377765  0.06238808  0.08822047     0.11100
H1472       H  0.53416618  0.05410391  0.04060080     0.07600
C1473       C  0.48817457  0.24228408  0.34337848    -0.11500
C1474       C  0.51347533  0.23374172  0.35787459     0.05700
C1475       C  0.52611457  0.20721185  0.35074572    -0.10300
C1476       C  0.51466348  0.19010622  0.32880094    -0.11900
C1477       C  0.49024865  0.19907547  0.31305842    -0.01700
C1478       C  0.47669122  0.22510951  0.32096351    -0.10800
C1479       C  0.52743219  0.25182539  0.38043517     0.05700
H1480       H  0.54512622  0.19971047  0.36214992     0.07600
H1481       H  0.52543831  0.16994956  0.32389843     0.11100
H1482       H  0.45771595  0.23248791  0.30945463     0.11300
H1483       H  0.47787180  0.26255085  0.34879888     0.07600
C1484       C  0.55757248  0.25577510  0.37979551    -0.11500
C1485       C  0.57213492  0.26697719  0.40373111    -0.10800
C1486       C  0.55683570  0.27485083  0.42865856    -0.01700
C1487       C  0.52647063  0.27340353  0.42847421    -0.11900
C1488       C  0.51181430  0.26182943  0.40446948    -0.10300
H1489       H  0.57004029  0.24867087  0.36130391     0.07600
H1490       H  0.59554065  0.26824889  0.40329242     0.11300
H1491       H  0.51429710  0.27926646  0.44757826     0.11100
H1492       H  0.48858421  0.25890426  0.40546754     0.07600
C1493       C  0.59112770  0.02235492  0.26908877    -0.11500
C1494       C  0.61123204  0.01342004  0.24834938     0.05700
C1495       C  0.60500105  0.01715229  0.21889174    -0.10300
C1496       C  0.57952449  0.03129463  0.21044756    -0.11900
C1497       C  0.56034337  0.04202900  0.23146419    -0.01700
C1498       C  0.56599315  0.03649775  0.26077546    -0.10800
C1499       C  0.63995089  0.00416186  0.25843975     0.05700
H1500       H  0.62046316  0.01053854  0.20263439     0.07600
H1501       H  0.57567843  0.03529021  0.18771570     0.11100
H1502       H  0.55145203  0.04410878  0.27745407     0.11300
H1503       H  0.59561332  0.01958505  0.29191026     0.07600
C1504       C  0.65740345  0.02447991  0.27271948    -0.11500
C1505       C  0.68173268  0.01569743  0.28799294    -0.10800
C1506       C  0.68911954  0.98628392  0.28950197    -0.01700
C1507       C  0.67279006  0.96609486  0.27342103    -0.11900
C1508       C  0.64821956  0.97501604  0.25799983    -0.10300
H1509       H  0.65132924  0.04707184  0.27321210     0.07600
H1510       H  0.69413160  0.03194076  0.29957698     0.11300
H1511       H  0.67810268  0.94333338  0.27397501     0.11100
H1512       H  0.63483536  0.95905348  0.24715454     0.07600
loop_ 
_geom_bond_atom_site_label_1 
_geom_bond_atom_site_label_2 
_geom_bond_distance 
_geom_bond_site_symmetry_2 
_ccdc_geom_bond_type 
Zr1           O2   2.440       .  S
Zr1           O3   2.440       .  S
Zr1           O4   2.423       .  S
Zr1           O7   2.452       .  S
Zr1           O9   2.379       .  S
Zr1          O10   2.378       .  S
Zr1          O11   2.411       .  S
Zr1          O12   2.405       .  S
O2           H58   0.991       .  S
O2           H66   0.990       .  S
O3           C23   1.285       .  A
O4           C25   1.283       .  A
O5          Zr15   2.401       .  S
O5           C24   1.280       .  A
O6          Zr14   2.471       .  S
O6           C25   1.291       .  A
O7           C24   1.288       .  A
O8          Zr16   2.415       .  S
O8           C23   1.280       .  A
O9          Zr14   2.398       .  S
O9          Zr16   2.381       .  S
O10         Zr15   2.396       .  S
O10         Zr16   2.372       .  S
O10          H45   0.966       .  S
O11         Zr14   2.410       .  S
O11         Zr31   2.395       .  S
O11          H48   0.965       .  S
O12         Zr15   2.390       .  S
O12         Zr31   2.398       .  S
Zr13         O38   2.444       .  S
Zr13         O32   2.428       .  S
Zr13         O40   2.443       .  S
Zr13         O28   2.391       .  S
Zr13         O19   2.391       .  S
Zr13         O20   2.411       .  S
Zr13         O21   2.378       .  S
Zr13         O22   2.371       .  S
Zr14         O33   2.436       .  S
Zr14         O26   2.434       .  S
Zr14         O27   2.476       .  S
Zr14         O20   2.411       .  S
Zr14         O21   2.389       .  S
Zr15         O17   2.438       .  S
Zr15         O39   2.436       .  S
Zr15         O41   2.421       .  S
Zr15         O19   2.381       .  S
Zr15         O22   2.382       .  S
Zr16         O42   2.436       .  S
Zr16         O43   2.436       .  S
Zr16         O18   2.436       .  S
Zr16         O19   2.393       .  S
Zr16         O20   2.391       .  S
O17          H54   0.990       .  S
O18          H49   0.990       .  S
O18          H63   0.990       .  S
O20          H46   0.965       .  S
O21         Zr31   2.371       .  S
O22         Zr31   2.373       .  S
O22          H47   0.965       .  S
C23        C1417   1.479       .  S
C24        C1477   1.485       .  S
C25        C1437   1.495       .  S
O26          H62   0.990       .  S
O27          C29   1.293       .  A
O28          C29   1.279       .  A
C29        C1397   1.485       .  S
O30         Zr31   2.438       .  S
O30          H59   0.990       .  S
Zr31         O34   2.434       .  S
Zr31         O35   2.441       .  S
Zr31         O36   2.429       .  S
O32          C37   1.285       .  A
O33          H50   0.990       .  S
O33          H65   0.990       .  S
O34          H51   0.990       .  S
O35          H55   0.990       .  S
O35          H64   0.990       .  S
O36          C37   1.283       .  A
C37        C1466   1.482       .  S
O38          H57   0.990       .  S
O38          H61   0.990       .  S
O39          H53   0.990       .  S
O39          H60   0.990       .  S
O40          C44   1.286       .  A
O41          C44   1.284       .  A
O42          H52   0.990       .  S
O43          H56   0.990       .  S
C44        C1497   1.480       .  S
Zr67         O68   2.442       .  S
Zr67         O69   2.426       .  S
Zr67         O70   2.403       .  S
Zr67         O73   2.453       .  S
Zr67         O75   2.382       .  S
Zr67         O76   2.374       .  S
Zr67         O77   2.411       .  S
Zr67         O78   2.397       .  S
O68         H124   0.991       .  S
O68         H132   0.990       .  S
O69          C89   1.283       .  A
O70          C91   1.279       .  A
O71         Zr81   2.409       .  S
O71          C90   1.281       .  A
O72         Zr80   2.467       .  S
O72          C91   1.290       .  A
O73          C90   1.287       .  A
O74         Zr82   2.433       .  S
O74          C89   1.283       .  A
O75         Zr80   2.391       .  S
O75         Zr82   2.372       .  S
O76         Zr81   2.393       .  S
O76         Zr82   2.376       .  S
O76         H111   0.966       .  S
O77         Zr80   2.408       .  S
O77         Zr97   2.384       .  S
O77         H114   0.965       .  S
O78         Zr81   2.391       .  S
O78         Zr97   2.397       .  S
Zr79        O104   2.444       .  S
Zr79         O98   2.434       .  S
Zr79        O106   2.459       .  S
Zr79         O94   2.406       .  S
Zr79         O85   2.397       .  S
Zr79         O86   2.413       .  S
Zr79         O87   2.382       .  S
Zr79         O88   2.375       .  S
Zr80         O99   2.436       .  S
Zr80         O92   2.435       .  S
Zr80         O93   2.462       .  S
Zr80         O86   2.407       .  S
Zr80         O87   2.389       .  S
Zr81         O83   2.435       .  S
Zr81        O105   2.437       .  S
Zr81        O107   2.420       .  S
Zr81         O85   2.382       .  S
Zr81         O88   2.388       .  S
Zr82        O108   2.434       .  S
Zr82        O109   2.435       .  S
Zr82         O84   2.437       .  S
Zr82         O85   2.406       .  S
Zr82         O86   2.390       .  S
O83         H120   0.990       .  S
O84         H115   0.990       .  S
O84         H129   0.990       .  S
O86         H112   0.965       .  S
O87         Zr97   2.371       .  S
O88         Zr97   2.374       .  S
O88         H113   0.966       .  S
C89        C1386   1.479       .  S
C90        C1326   1.477       .  S
C91        C1337   1.483       .  S
O92         H128   0.990       .  S
O93          C95   1.291       .  A
O94          C95   1.282       .  A
C95        C1426   1.484       .  S
O96         Zr97   2.438       .  S
O96         H125   0.990       .  S
Zr97        O100   2.436       .  S
Zr97        O101   2.438       .  S
Zr97        O102   2.422       .  S
O98         C103   1.285       .  A
O99         H116   0.990       .  S
O99         H131   0.990       .  S
O100        H117   0.990       .  S
O101        H121   0.990       .  S
O101        H130   0.990       .  S
O102        C103   1.282       .  A
C103       C1357   1.478       .  S
O104        H123   0.990       .  S
O104        H127   0.990       .  S
O105        H119   0.990       .  S
O105        H126   0.990       .  S
O106        C110   1.289       .  A
O107        C110   1.284       .  A
O108        H118   0.990       .  S
O109        H122   0.990       .  S
C110       C1297   1.491       .  S
Zr133       O134   2.443       .  S
Zr133       O135   2.442       .  S
Zr133       O136   2.400       .  S
Zr133       O139   2.441       .  S
Zr133       O141   2.378       .  S
Zr133       O142   2.374       .  S
Zr133       O143   2.411       .  S
Zr133       O144   2.400       .  S
O134        H190   0.991       .  S
O134        H198   0.991       .  S
O135        C155   1.287       .  A
O136        C157   1.279       .  A
O137       Zr147   2.406       .  S
O137        C156   1.281       .  A
O138       Zr146   2.462       .  S
O138        C157   1.289       .  A
O139        C156   1.286       .  A
O140       Zr148   2.441       .  S
O140        C155   1.286       .  A
O141       Zr146   2.394       .  S
O141       Zr148   2.376       .  S
O142       Zr147   2.391       .  S
O142       Zr148   2.374       .  S
O142        H177   0.966       .  S
O143       Zr146   2.401       .  S
O143       Zr163   2.394       .  S
O143        H180   0.965       .  S
O144       Zr147   2.381       .  S
O144       Zr163   2.396       .  S
Zr145       O170   2.443       .  S
Zr145       O164   2.427       .  S
Zr145       O172   2.456       .  S
Zr145       O160   2.413       .  S
Zr145       O151   2.394       .  S
Zr145       O152   2.411       .  S
Zr145       O153   2.382       .  S
Zr145       O154   2.378       .  S
Zr146       O165   2.434       .  S
Zr146       O158   2.435       .  S
Zr146       O159   2.458       .  S
Zr146       O152   2.409       .  S
Zr146       O153   2.387       .  S
Zr147       O149   2.435       .  S
Zr147       O171   2.435       .  S
Zr147       O173   2.418       .  S
Zr147       O151   2.381       .  S
Zr147       O154   2.386       .  S
Zr148       O174   2.437       .  S
Zr148       O175   2.437       .  S
Zr148       O150   2.437       .  S
Zr148       O151   2.400       .  S
Zr148       O152   2.394       .  S
O149        H186   0.990       .  S
O150        H181   0.990       .  S
O150        H195   0.990       .  S
O152        H178   0.965       .  S
O153       Zr163   2.374       .  S
O154       Zr163   2.374       .  S
O154        H179   0.966       .  S
C155       C1446   1.493       .  S
C156       C1257   1.468       .  S
C157       C1366   1.478       .  S
O158        H194   0.990       .  S
O159        C161   1.290       .  A
O160        C161   1.283       .  A
C161       C1217   1.484       .  S
O162       Zr163   2.438       .  S
O162        H191   0.990       .  S
Zr163       O166   2.438       .  S
Zr163       O167   2.439       .  S
Zr163       O168   2.433       .  S
O164        C169   1.285       .  A
O165        H182   0.990       .  S
O165        H197   0.990       .  S
O166        H183   0.990       .  S
O167        H187   0.990       .  S
O167        H196   0.990       .  S
O168        C169   1.284       .  A
C169       C1237   1.480       .  S
O170        H189   0.991       .  S
O170        H193   0.990       .  S
O171        H185   0.990       .  S
O171        H192   0.990       .  S
O172        C176   1.289       .  A
O173        C176   1.284       .  A
O174        H184   0.990       .  S
O175        H188   0.990       .  S
C176       C1286   1.492       .  S
Zr199       O200   2.439       .  S
Zr199       O201   2.431   1_655  S
Zr199       O202   2.402       .  S
Zr199       O205   2.446   1_655  S
Zr199       O207   2.380       .  S
Zr199       O208   2.374   1_655  S
Zr199       O209   2.410       .  S
Zr199       O210   2.391       .  S
O200        H256   0.990       .  S
O200        H264   0.990       .  S
O201        C221   1.285       .  A
O202        C223   1.280       .  A
O203       Zr213   2.414   1_455  S
O203        C222   1.282       .  A
O204       Zr212   2.469       .  S
O204        C223   1.291       .  A
O205        C222   1.286       .  A
O206       Zr214   2.435   1_455  S
O206        C221   1.284       .  A
O207       Zr212   2.394       .  S
O207       Zr214   2.375       .  S
O208       Zr213   2.390   1_455  S
O208       Zr214   2.375   1_455  S
O208        H243   0.966       .  S
O209       Zr212   2.409       .  S
O209       Zr229   2.383       .  S
O209        H246   0.965       .  S
O210       Zr213   2.386       .  S
O210       Zr229   2.392       .  S
Zr211       O236   2.447       .  S
Zr211       O230   2.440       .  S
Zr211       O238   2.448       .  S
Zr211       O226   2.407       .  S
Zr211       O217   2.398       .  S
Zr211       O218   2.411       .  S
Zr211       O219   2.380       .  S
Zr211       O220   2.374       .  S
Zr212       O231   2.438       .  S
Zr212       O224   2.434       .  S
Zr212       O225   2.466       .  S
Zr212       O218   2.411       .  S
Zr212       O219   2.392       .  S
Zr213       O215   2.436   1_655  S
Zr213       O237   2.436   1_655  S
Zr213       O239   2.413       .  S
Zr213       O217   2.385       .  S
Zr213       O220   2.390       .  S
Zr214       O240   2.437   1_655  S
Zr214       O241   2.437   1_655  S
Zr214       O216   2.436       .  S
Zr214       O217   2.401       .  S
Zr214       O218   2.400       .  S
O215        H252   0.990       .  S
O216        H247   0.990   1_655  S
O216        H261   0.990       .  S
O218        H244   0.966       .  S
O219       Zr229   2.374       .  S
O220       Zr229   2.373       .  S
O220        H245   0.966       .  S
C221       C1226   1.484       .  S
C222       C1137   1.474       .  S
C223       C1177   1.482       .  S
O224        H260   0.990       .  S
O225        C227   1.291       .  A
O226        C227   1.281       .  A
C227       C1157   1.489       .  S
O228       Zr229   2.439       .  S
O228        H257   0.990       .  S
Zr229       O232   2.440       .  S
Zr229       O233   2.436       .  S
Zr229       O234   2.420       .  S
O230        C235   1.287       .  A
O231        H248   0.990       .  S
O231        H263   0.990       .  S
O232        H249   0.990       .  S
O233        H253   0.990       .  S
O233        H262   0.990       .  S
O234        C235   1.282       .  A
C235       C1206   1.480       .  S
O236        H255   0.990       .  S
O236        H259   0.990       .  S
O237        H251   0.990       .  S
O237        H258   0.990       .  S
O238        C242   1.287       .  A
O239        C242   1.282       .  A
O240        H250   0.990       .  S
O241        H254   0.990   1_455  S
C242       C1317   1.486       .  S
Zr265       O266   2.437       .  S
Zr265       O267   2.431       .  S
Zr265       O268   2.402       .  S
Zr265       O271   2.441       .  S
Zr265       O273   2.377       .  S
Zr265       O274   2.375       .  S
Zr265       O275   2.412       .  S
Zr265       O276   2.396       .  S
O266        H322   0.990       .  S
O266        H330   0.990       .  S
O267        C287   1.284       .  A
O268        C289   1.280       .  A
O269       Zr279   2.412       .  S
O269        C288   1.282       .  A
O270       Zr278   2.479       .  S
O270        C289   1.293       .  A
O271        C288   1.286       .  A
O272       Zr280   2.430       .  S
O272        C287   1.283       .  A
O273       Zr278   2.388       .  S
O273       Zr280   2.374       .  S
O274       Zr279   2.390       .  S
O274       Zr280   2.374       .  S
O274        H309   0.966       .  S
O275       Zr278   2.407       .  S
O275       Zr295   2.395       .  S
O275        H312   0.965       .  S
O276       Zr279   2.382       .  S
O276       Zr295   2.396       .  S
Zr277       O302   2.442       .  S
Zr277       O296   2.437   1_565  S
Zr277       O304   2.459   1_565  S
Zr277       O292   2.414       .  S
Zr277       O283   2.398       .  S
Zr277       O284   2.411       .  S
Zr277       O285   2.383       .  S
Zr277       O286   2.376   1_565  S
Zr278       O297   2.434       .  S
Zr278       O290   2.435       .  S
Zr278       O291   2.461       .  S
Zr278       O284   2.411       .  S
Zr278       O285   2.391       .  S
Zr279       O281   2.436   1_565  S
Zr279       O303   2.435       .  S
Zr279       O305   2.412   1_565  S
Zr279       O283   2.384       .  S
Zr279       O286   2.390   1_565  S
Zr280       O306   2.436       .  S
Zr280       O307   2.435       .  S
Zr280       O282   2.436       .  S
Zr280       O283   2.399       .  S
Zr280       O284   2.390       .  S
O281        H318   0.990       .  S
O282        H313   0.990       .  S
O282        H327   0.990       .  S
O284        H310   0.965       .  S
O285       Zr295   2.373       .  S
O286       Zr295   2.372   1_545  S
O286        H311   0.966       .  S
C287       C1066   1.479       .  S
C288       C1506   1.482       .  S
C289       C1077   1.491       .  S
O290        H326   0.990       .  S
O291        C293   1.291       .  A
O292        C293   1.283       .  A
C293       C1097   1.483       .  S
O294       Zr295   2.439       .  S
O294        H323   0.990   1_565  S
Zr295       O298   2.437       .  S
Zr295       O299   2.441   1_565  S
Zr295       O300   2.432   1_565  S
O296        C301   1.286       .  A
O297        H314   0.990       .  S
O297        H329   0.990       .  S
O298        H315   0.990       .  S
O299        H319   0.990       .  S
O299        H328   0.990       .  S
O300        C301   1.284       .  A
C301       C1346   1.483       .  S
O302        H321   0.991       .  S
O302        H325   0.990       .  S
O303        H317   0.990       .  S
O303        H324   0.990   1_565  S
O304        C308   1.289       .  A
O305        C308   1.283       .  A
O306        H316   0.990       .  S
O307        H320   0.990       .  S
C308       C1126   1.490       .  S
Zr331       O332   2.437       .  S
Zr331       O333   2.440       .  S
Zr331       O334   2.405       .  S
Zr331       O337   2.444       .  S
Zr331       O339   2.380       .  S
Zr331       O340   2.374       .  S
Zr331       O341   2.412       .  S
Zr331       O342   2.397       .  S
O332        H388   0.990       .  S
O332        H396   0.990       .  S
O333        C353   1.286       .  A
O334        C355   1.281       .  A
O335       Zr345   2.415       .  S
O335        C354   1.283       .  A
O336       Zr344   2.473       .  S
O336        C355   1.292       .  A
O337        C354   1.287       .  A
O338       Zr346   2.432       .  S
O338        C353   1.284       .  A
O339       Zr344   2.392       .  S
O339       Zr346   2.374       .  S
O340       Zr345   2.389       .  S
O340       Zr346   2.367       .  S
O340        H375   0.966       .  S
O341       Zr344   2.405       .  S
O341       Zr361   2.393       .  S
O341        H378   0.965       .  S
O342       Zr345   2.383       .  S
O342       Zr361   2.400       .  S
Zr343       O368   2.443       .  S
Zr343       O362   2.434   1_455  S
Zr343       O370   2.443   1_455  S
Zr343       O358   2.395       .  S
Zr343       O349   2.395       .  S
Zr343       O350   2.412       .  S
Zr343       O351   2.379       .  S
Zr343       O352   2.373   1_455  S
Zr344       O363   2.435       .  S
Zr344       O356   2.435       .  S
Zr344       O357   2.467       .  S
Zr344       O350   2.405       .  S
Zr344       O351   2.390       .  S
Zr345       O347   2.433   1_455  S
Zr345       O369   2.439       .  S
Zr345       O371   2.419   1_455  S
Zr345       O349   2.382       .  S
Zr345       O352   2.388   1_455  S
Zr346       O372   2.437       .  S
Zr346       O373   2.436       .  S
Zr346       O348   2.436       .  S
Zr346       O349   2.396       .  S
Zr346       O350   2.392       .  S
O347        H384   0.990       .  S
O348        H379   0.990       .  S
O348        H393   0.990       .  S
O350        H376   0.965       .  S
O351       Zr361   2.370       .  S
O352       Zr361   2.376   1_655  S
O352        H377   0.965       .  S
C353       C1037   1.485       .  S
C354        C986   1.485       .  S
C355       C1017   1.490       .  S
O356        H392   0.990       .  S
O357        C359   1.292       .  A
O358        C359   1.280       .  A
C359       C1377   1.481       .  S
O360       Zr361   2.440   1_655  S
O360        H389   0.990       .  S
Zr361       O364   2.438       .  S
Zr361       O365   2.440   1_455  S
Zr361       O366   2.441   1_455  S
O362        C367   1.286       .  A
O363        H380   0.990       .  S
O363        H395   0.990       .  S
O364        H381   0.990       .  S
O365        H385   0.990       .  S
O365        H394   0.990       .  S
O366        C367   1.286       .  A
C367       C1106   1.486       .  S
O368        H387   0.990       .  S
O368        H391   0.990       .  S
O369        H383   0.990   1_455  S
O369        H390   0.990       .  S
O370        C374   1.286       .  A
O371        C374   1.284       .  A
O372        H382   0.990       .  S
O373        H386   0.990       .  S
C374       C1006   1.475       .  S
Zr397       O398   2.439       .  S
Zr397       O399   2.430   1_556  S
Zr397       O400   2.402       .  S
Zr397       O403   2.451   1_556  S
Zr397       O405   2.384       .  S
Zr397       O406   2.374   1_556  S
Zr397       O407   2.413       .  S
Zr397       O408   2.395       .  S
O398        H454   0.990       .  S
O398        H462   0.990       .  S
O399        C419   1.284       .  A
O400        C421   1.280       .  A
O401       Zr411   2.424   1_554  S
O401        C420   1.284       .  A
O402       Zr410   2.468       .  S
O402        C421   1.291       .  A
O403        C420   1.288       .  A
O404       Zr412   2.424   1_554  S
O404        C419   1.282       .  A
O405       Zr410   2.392       .  S
O405       Zr412   2.374       .  S
O406       Zr411   2.387   1_554  S
O406       Zr412   2.372   1_554  S
O406        H441   0.966       .  S
O407       Zr410   2.411       .  S
O407       Zr427   2.398       .  S
O407        H444   0.966       .  S
O408       Zr411   2.383       .  S
O408       Zr427   2.402       .  S
Zr409       O434   2.445       .  S
Zr409       O428   2.435       .  S
Zr409       O436   2.457       .  S
Zr409       O424   2.412       .  S
Zr409       O415   2.400       .  S
Zr409       O416   2.413       .  S
Zr409       O417   2.383       .  S
Zr409       O418   2.380       .  S
Zr410       O429   2.436       .  S
Zr410       O422   2.435       .  S
Zr410       O423   2.474       .  S
Zr410       O416   2.407       .  S
Zr410       O417   2.391       .  S
Zr411       O413   2.436   1_556  S
Zr411       O435   2.435   1_556  S
Zr411       O437   2.412       .  S
Zr411       O415   2.390       .  S
Zr411       O418   2.394       .  S
Zr412       O438   2.436   1_556  S
Zr412       O439   2.436       .  S
Zr412       O414   2.438       .  S
Zr412       O415   2.397       .  S
Zr412       O416   2.391       .  S
O413        H450   0.990       .  S
O414        H445   0.991       .  S
O414        H459   0.990       .  S
O416        H442   0.965       .  S
O417       Zr427   2.373       .  S
O418       Zr427   2.379       .  S
O418        H443   0.966       .  S
C419       C1406   1.480       .  S
C420        C917   1.488       .  S
C421        C937   1.486       .  S
O422        H458   0.990       .  S
O423        C425   1.293       .  A
O424        C425   1.282       .  A
C425       C1046   1.488       .  S
O426       Zr427   2.440       .  S
O426        H455   0.990       .  S
Zr427       O430   2.438       .  S
Zr427       O431   2.441       .  S
Zr427       O432   2.438       .  S
O428        C433   1.286       .  A
O429        H446   0.990       .  S
O429        H461   0.990       .  S
O430        H447   0.990       .  S
O431        H451   0.990       .  S
O431        H460   0.990       .  S
O432        C433   1.285       .  A
C433        C957   1.487       .  S
O434        H453   0.990       .  S
O434        H457   0.990       .  S
O435        H449   0.990       .  S
O435        H456   0.990       .  S
O436        C440   1.288       .  A
O437        C440   1.282       .  A
O438        H448   0.990       .  S
O439        H452   0.990       .  S
C440       C1277   1.483       .  S
Zr463       O464   2.441       .  S
Zr463       O465   2.431       .  S
Zr463       O466   2.400       .  S
Zr463       O469   2.446       .  S
Zr463       O471   2.380       .  S
Zr463       O472   2.378       .  S
Zr463       O473   2.412       .  S
Zr463       O474   2.398       .  S
O464        H520   0.990       .  S
O464        H528   0.990       .  S
O465        C485   1.284       .  A
O466        C487   1.279       .  A
O467       Zr477   2.419       .  S
O467        C486   1.282       .  A
O468       Zr476   2.472       .  S
O468        C487   1.291       .  A
O469        C486   1.286       .  A
O470       Zr478   2.430       .  S
O470        C485   1.283       .  A
O471       Zr476   2.397       .  S
O471       Zr478   2.377       .  S
O472       Zr477   2.395       .  S
O472       Zr478   2.378       .  S
O472        H507   0.966       .  S
O473       Zr476   2.404       .  S
O473       Zr493   2.390       .  S
O473        H510   0.965       .  S
O474       Zr477   2.383       .  S
O474       Zr493   2.398       .  S
Zr475       O500   2.444       .  S
Zr475       O494   2.428       .  S
Zr475       O502   2.441       .  S
Zr475       O490   2.396       .  S
Zr475       O481   2.397       .  S
Zr475       O482   2.407       .  S
Zr475       O483   2.381       .  S
Zr475       O484   2.375       .  S
Zr476       O495   2.436       .  S
Zr476       O488   2.434       .  S
Zr476       O489   2.476       .  S
Zr476       O482   2.409       .  S
Zr476       O483   2.388       .  S
Zr477       O479   2.433       .  S
Zr477       O501   2.436       .  S
Zr477       O503   2.420       .  S
Zr477       O481   2.388       .  S
Zr477       O484   2.388       .  S
Zr478       O504   2.436       .  S
Zr478       O505   2.436       .  S
Zr478       O480   2.438       .  S
Zr478       O481   2.400       .  S
Zr478       O482   2.393       .  S
O479        H516   0.990       .  S
O480        H511   0.990       .  S
O480        H525   0.990       .  S
O482        H508   0.965       .  S
O483       Zr493   2.373       .  S
O484       Zr493   2.372       .  S
O484        H509   0.966       .  S
C485        C877   1.482       .  S
C486       C1306   1.478       .  S
C487        C906   1.487       .  S
O488        H524   0.990       .  S
O489        C491   1.294       .  A
O490        C491   1.280       .  A
C491        C966   1.490       .  S
O492       Zr493   2.439       .  S
O492        H521   0.990       .  S
Zr493       O496   2.436       .  S
Zr493       O497   2.440       .  S
Zr493       O498   2.435       .  S
O494        C499   1.285       .  A
O495        H512   0.990       .  S
O495        H527   0.990       .  S
O496        H513   0.990       .  S
O497        H517   0.990       .  S
O497        H526   0.990       .  S
O498        C499   1.285       .  A
C499       C1026   1.487       .  S
O500        H519   0.990       .  S
O500        H523   0.990       .  S
O501        H515   0.990       .  S
O501        H522   0.989       .  S
O502        C506   1.286       .  A
O503        C506   1.284       .  A
O504        H514   0.990       .  S
O505        H518   0.990       .  S
C506       C1146   1.484       .  S
Zr529       O530   2.441       .  S
Zr529       O531   2.435       .  S
Zr529       O532   2.409       .  S
Zr529       O535   2.439       .  S
Zr529       O537   2.378       .  S
Zr529       O538   2.377       .  S
Zr529       O539   2.411       .  S
Zr529       O540   2.400       .  S
O530        H586   0.991       .  S
O530        H594   0.990       .  S
O531        C551   1.285       .  A
O532        C553   1.281       .  A
O533       Zr543   2.416       .  S
O533        C552   1.283       .  A
O534       Zr542   2.457       .  S
O534        C553   1.289       .  A
O535        C552   1.286       .  A
O536       Zr544   2.426       .  S
O536        C551   1.283       .  A
O537       Zr542   2.390       .  S
O537       Zr544   2.373       .  S
O538       Zr543   2.393       .  S
O538       Zr544   2.373       .  S
O538        H573   0.966       .  S
O539       Zr542   2.409       .  S
O539       Zr559   2.396       .  S
O539        H576   0.966       .  S
O540       Zr543   2.386       .  S
O540       Zr559   2.402       .  S
Zr541       O566   2.444       .  S
Zr541       O560   2.429       .  S
Zr541       O568   2.446       .  S
Zr541       O556   2.401       .  S
Zr541       O547   2.395       .  S
Zr541       O548   2.405       .  S
Zr541       O549   2.378       .  S
Zr541       O550   2.374       .  S
Zr542       O561   2.435       .  S
Zr542       O554   2.433       .  S
Zr542       O555   2.457       .  S
Zr542       O548   2.402       .  S
Zr542       O549   2.388       .  S
Zr543       O545   2.434       .  S
Zr543       O567   2.438       .  S
Zr543       O569   2.423       .  S
Zr543       O547   2.384       .  S
Zr543       O550   2.385       .  S
Zr544       O570   2.434       .  S
Zr544       O571   2.436       .  S
Zr544       O546   2.437       .  S
Zr544       O547   2.396       .  S
Zr544       O548   2.388       .  S
O545        H582   0.990       .  S
O546        H577   0.990       .  S
O546        H591   0.990       .  S
O548        H574   0.965       .  S
O549       Zr559   2.370       .  S
O550       Zr559   2.378       .  S
O550        H575   0.966       .  S
C551        C897   1.481       .  S
C552       C1266   1.483       .  S
C553        C846   1.488       .  S
O554        H590   0.990       .  S
O555        C557   1.290       .  A
O556        C557   1.281       .  A
C557       C1057   1.478       .  S
O558       Zr559   2.440       .  S
O558        H587   0.990       .  S
Zr559       O562   2.438       .  S
Zr559       O563   2.440       .  S
Zr559       O564   2.439       .  S
O560        C565   1.285       .  A
O561        H578   0.990       .  S
O561        H593   0.990       .  S
O562        H579   0.990       .  S
O563        H583   0.990       .  S
O563        H592   0.990       .  S
O564        C565   1.285       .  A
C565        C857   1.487       .  S
O566        H585   0.990       .  S
O566        H589   0.990       .  S
O567        H581   0.990       .  S
O567        H588   0.990       .  S
O568        C572   1.286       .  A
O569        C572   1.284       .  A
O570        H580   0.990       .  S
O571        H584   0.990       .  S
C572        C926   1.474       .  S
Zr595       O596   2.441       .  S
Zr595       O597   2.450       .  S
Zr595       O598   2.407       .  S
Zr595       O601   2.444       .  S
Zr595       O603   2.378       .  S
Zr595       O604   2.376       .  S
Zr595       O605   2.413       .  S
Zr595       O606   2.406       .  S
O596        H652   0.990       .  S
O596        H660   0.990       .  S
O597        C617   1.288       .  A
O598        C619   1.280       .  A
O599       Zr609   2.421       .  S
O599        C618   1.284       .  A
O600       Zr608   2.472       .  S
O600        C619   1.292       .  A
O601        C618   1.286       .  A
O602       Zr610   2.422       .  S
O602        C617   1.281       .  A
O603       Zr608   2.395       .  S
O603       Zr610   2.378       .  S
O604       Zr609   2.390       .  S
O604       Zr610   2.376       .  S
O604        H639   0.966       .  S
O605       Zr608   2.407       .  S
O605       Zr625   2.397       .  S
O605        H642   0.965       .  S
O606       Zr609   2.388       .  S
O606       Zr625   2.405       .  S
Zr607       O632   2.444       .  S
Zr607       O626   2.443       .  S
Zr607       O634   2.440       .  S
Zr607       O622   2.406       .  S
Zr607       O613   2.399       .  S
Zr607       O614   2.412       .  S
Zr607       O615   2.378       .  S
Zr607       O616   2.377       .  S
Zr608       O627   2.434       .  S
Zr608       O620   2.433       .  S
Zr608       O621   2.469       .  S
Zr608       O614   2.411       .  S
Zr608       O615   2.390       .  S
Zr609       O611   2.436       .  S
Zr609       O633   2.436       .  S
Zr609       O635   2.425       .  S
Zr609       O613   2.385       .  S
Zr609       O616   2.390       .  S
Zr610       O636   2.438       .  S
Zr610       O637   2.436       .  S
Zr610       O612   2.438       .  S
Zr610       O613   2.397       .  S
Zr610       O614   2.395       .  S
O611        H648   0.990       .  S
O612        H643   0.991       .  S
O612        H657   0.990       .  S
O614        H640   0.965       .  S
O615       Zr625   2.372       .  S
O616       Zr625   2.367       .  S
O616        H641   0.965       .  S
C617        C817   1.488       .  S
C618       C1117   1.481       .  S
C619       C1197   1.486       .  S
O620        H656   0.990       .  S
O621        C623   1.292       .  A
O622        C623   1.282       .  A
C623        C886   1.489       .  S
O624       Zr625   2.439       .  S
O624        H653   0.991       .  S
Zr625       O628   2.439       .  S
Zr625       O629   2.442       .  S
Zr625       O630   2.439       .  S
O626        C631   1.287       .  A
O627        H644   0.990       .  S
O627        H659   0.990       .  S
O628        H645   0.990       .  S
O629        H649   0.990       .  S
O629        H658   0.990       .  S
O630        C631   1.285       .  A
C631        C837   1.492       .  S
O632        H651   0.991       .  S
O632        H655   0.990       .  S
O633        H647   0.990       .  S
O633        H654   0.990       .  S
O634        C638   1.286       .  A
O635        C638   1.284       .  A
O636        H646   0.990       .  S
O637        H650   0.990       .  S
C638       C1486   1.473       .  S
Zr661       O662   2.440       .  S
Zr661       O663   2.432   1_545  S
Zr661       O664   2.406       .  S
Zr661       O667   2.456   1_545  S
Zr661       O669   2.382       .  S
Zr661       O670   2.377   1_545  S
Zr661       O671   2.414       .  S
Zr661       O672   2.395       .  S
O662        H718   0.991       .  S
O662        H726   0.990       .  S
O663        C683   1.284       .  A
O664        C685   1.280       .  A
O665       Zr675   2.410   1_565  S
O665        C684   1.281       .  A
O666       Zr674   2.476       .  S
O666        C685   1.292       .  A
O667        C684   1.288       .  A
O668       Zr676   2.425   1_565  S
O668        C683   1.282       .  A
O669       Zr674   2.400       .  S
O669       Zr676   2.375       .  S
O670       Zr675   2.393   1_565  S
O670       Zr676   2.376   1_565  S
O670        H705   0.966       .  S
O671       Zr674   2.416       .  S
O671       Zr691   2.389       .  S
O671        H708   0.965       .  S
O672       Zr675   2.385       .  S
O672       Zr691   2.393       .  S
Zr673       O698   2.443       .  S
Zr673       O692   2.433       .  S
Zr673       O700   2.456       .  S
Zr673       O688   2.414       .  S
Zr673       O679   2.399       .  S
Zr673       O680   2.411       .  S
Zr673       O681   2.384       .  S
Zr673       O682   2.377       .  S
Zr674       O693   2.437       .  S
Zr674       O686   2.435       .  S
Zr674       O687   2.477       .  S
Zr674       O680   2.408       .  S
Zr674       O681   2.394       .  S
Zr675       O677   2.435   1_545  S
Zr675       O699   2.436   1_545  S
Zr675       O701   2.410       .  S
Zr675       O679   2.384       .  S
Zr675       O682   2.385       .  S
Zr676       O702   2.436   1_545  S
Zr676       O703   2.435   1_545  S
Zr676       O678   2.436       .  S
Zr676       O679   2.400       .  S
Zr676       O680   2.397       .  S
O677        H714   0.990       .  S
O678        H709   0.990       .  S
O678        H723   0.990       .  S
O680        H706   0.965       .  S
O681       Zr691   2.377       .  S
O682       Zr691   2.373       .  S
O682        H707   0.966       .  S
C683        C946   1.481       .  S
C684        C806   1.480       .  S
C685       C1457   1.490       .  S
O686        H722   0.990       .  S
O687        C689   1.293       .  A
O688        C689   1.283       .  A
C689        C826   1.495       .  S
O690       Zr691   2.439       .  S
O690        H719   0.991       .  S
Zr691       O694   2.437       .  S
Zr691       O695   2.441       .  S
Zr691       O696   2.419       .  S
O692        C697   1.286       .  A
O693        H710   0.990       .  S
O693        H725   0.990       .  S
O694        H711   0.990       .  S
O695        H715   0.990       .  S
O695        H724   0.990       .  S
O696        C697   1.282       .  A
C697       C1166   1.481       .  S
O698        H717   0.990       .  S
O698        H721   0.990       .  S
O699        H713   0.990       .  S
O699        H720   0.990       .  S
O700        C704   1.289       .  A
O701        C704   1.282       .  A
O702        H712   0.990       .  S
O703        H716   0.990   1_565  S
C704        C997   1.486       .  S
Zr727       O728   2.442       .  S
Zr727       O729   2.429   1_554  S
Zr727       O730   2.413       .  S
Zr727       O733   2.449   1_554  S
Zr727       O735   2.382       .  S
Zr727       O736   2.377   1_554  S
Zr727       O737   2.409       .  S
Zr727       O738   2.397       .  S
O728        H784   0.991       .  S
O728        H792   0.990       .  S
O729        C749   1.284       .  A
O730        C751   1.282       .  A
O731       Zr741   2.409       .  S
O731        C750   1.281       .  A
O732       Zr740   2.466       .  S
O732        C751   1.290       .  A
O733        C750   1.287       .  A
O734       Zr742   2.432   1_556  S
O734        C749   1.283       .  A
O735       Zr740   2.398       .  S
O735       Zr742   2.377       .  S
O736       Zr741   2.391       .  S
O736       Zr742   2.373   1_556  S
O736        H771   0.966       .  S
O737       Zr740   2.410       .  S
O737       Zr757   2.387       .  S
O737        H774   0.965       .  S
O738       Zr741   2.386   1_554  S
O738       Zr757   2.394       .  S
Zr739       O764   2.442       .  S
Zr739       O758   2.435       .  S
Zr739       O766   2.441       .  S
Zr739       O754   2.399       .  S
Zr739       O745   2.399       .  S
Zr739       O746   2.410       .  S
Zr739       O747   2.377       .  S
Zr739       O748   2.374       .  S
Zr740       O759   2.436       .  S
Zr740       O752   2.434       .  S
Zr740       O753   2.472       .  S
Zr740       O746   2.407       .  S
Zr740       O747   2.389       .  S
Zr741       O743   2.435       .  S
Zr741       O765   2.437       .  S
Zr741       O767   2.421   1_556  S
Zr741       O745   2.379   1_556  S
Zr741       O748   2.387   1_556  S
Zr742       O768   2.436   1_554  S
Zr742       O769   2.434   1_554  S
Zr742       O744   2.437       .  S
Zr742       O745   2.404       .  S
Zr742       O746   2.397       .  S
O743        H780   0.990       .  S
O744        H775   0.990   1_554  S
O744        H789   0.990       .  S
O746        H772   0.965       .  S
O747       Zr757   2.373       .  S
O748       Zr757   2.368       .  S
O748        H773   0.965       .  S
C749       C1186   1.480       .  S
C750        C977   1.474       .  S
C751       C1246   1.487       .  S
O752        H788   0.990       .  S
O753        C755   1.293       .  A
O754        C755   1.280       .  A
C755        C866   1.488       .  S
O756       Zr757   2.439       .  S
O756        H785   0.990       .  S
Zr757       O760   2.436       .  S
Zr757       O761   2.440       .  S
Zr757       O762   2.435       .  S
O758        C763   1.286       .  A
O759        H776   0.990       .  S
O759        H791   0.990       .  S
O760        H777   0.990       .  S
O761        H781   0.990       .  S
O761        H790   0.990       .  S
O762        C763   1.285       .  A
C763       C1086   1.487       .  S
O764        H783   0.990       .  S
O764        H787   0.990       .  S
O765        H779   0.990       .  S
O765        H786   0.990       .  S
O766        C770   1.286       .  A
O767        C770   1.284       .  A
O768        H778   0.990       .  S
O769        H782   0.990   1_556  S
C770        C797   1.486       .  S
C793        C794   1.407       .  A
C793        C798   1.407       .  A
C793        H803   1.083       .  S
C794        C799   1.485   1_554  S
C794        C795   1.403   1_554  A
C795        C796   1.390       .  A
C795        H800   1.083       .  S
C796        C797   1.406   1_556  A
C796        H801   1.083       .  S
C797        C798   1.409       .  A
C798        H802   1.083       .  S
C799        C804   1.407       .  A
C799        C808   1.404       .  A
C804        C805   1.407       .  A
C804        H809   1.083       .  S
C805        C806   1.406       .  A
C805        H810   1.083       .  S
C806        C807   1.405       .  A
C807        C808   1.393       .  A
C807        H811   1.084       .  S
C808        H812   1.083       .  S
C813        C814   1.410       .  A
C813        C818   1.398       .  A
C813        H823   1.082       .  S
C814        C819   1.499       .  S
C814        C815   1.408       .  A
C815        C816   1.405       .  A
C815        H820   1.082       .  S
C816        C817   1.409       .  A
C816        H821   1.083       .  S
C817        C818   1.403       .  A
C818        H822   1.083       .  S
C819        C824   1.404       .  A
C819        C828   1.413       .  A
C824        C825   1.393       .  A
C824        H829   1.082       .  S
C825        C826   1.408       .  A
C825        H830   1.083       .  S
C826        C827   1.408       .  A
C827        C828   1.411       .  A
C827        H831   1.083       .  S
C828        H832   1.082       .  S
C833        C834   1.406       .  A
C833        C838   1.403       .  A
C833        H843   1.083       .  S
C834        C839   1.493       .  S
C834        C835   1.408       .  A
C835        C836   1.399       .  A
C835        H840   1.083       .  S
C836        C837   1.406       .  A
C836        H841   1.083       .  S
C837        C838   1.409       .  A
C838        H842   1.083       .  S
C839        C844   1.411       .  A
C839        C848   1.403       .  A
C844        C845   1.406       .  A
C844        H849   1.083       .  S
C845        C846   1.406       .  A
C845        H850   1.083       .  S
C846        C847   1.408       .  A
C847        C848   1.392       .  A
C847        H851   1.083       .  S
C848        H852   1.083       .  S
C853        C854   1.408       .  A
C853        C858   1.403       .  A
C853        H863   1.082       .  S
C854        C859   1.496       .  S
C854        C855   1.408       .  A
C855        C856   1.397       .  A
C855        H860   1.082       .  S
C856        C857   1.405       .  A
C856        H861   1.083       .  S
C857        C858   1.407       .  A
C858        H862   1.083       .  S
C859        C864   1.412       .  A
C859        C868   1.404       .  A
C864        C865   1.407       .  A
C864        H869   1.082       .  S
C865        C866   1.405       .  A
C865        H870   1.083       .  S
C866        C867   1.409       .  A
C867        C868   1.393       .  A
C867        H871   1.083       .  S
C868        H872   1.082       .  S
C873        C874   1.407       .  A
C873        C878   1.396       .  A
C873        H883   1.083       .  S
C874        C879   1.488       .  S
C874        C875   1.406       .  A
C875        C876   1.402       .  A
C875        H880   1.083       .  S
C876        C877   1.407       .  A
C876        H881   1.083       .  S
C877        C878   1.405       .  A
C878        H882   1.083       .  S
C879        C884   1.401       .  A
C879        C888   1.410       .  A
C884        C885   1.390       .  A
C884        H889   1.083       .  S
C885        C886   1.409       .  A
C885        H890   1.083       .  S
C886        C887   1.407       .  A
C887        C888   1.407       .  A
C887        H891   1.083       .  S
C888        H892   1.083       .  S
C893        C894   1.407       .  A
C893        C898   1.400       .  A
C893        H903   1.082       .  S
C894        C899   1.493       .  S
C894        C895   1.409       .  A
C895        C896   1.398       .  A
C895        H900   1.083       .  S
C896        C897   1.404       .  A
C896        H901   1.084       .  S
C897        C898   1.405       .  A
C898        H902   1.083       .  S
C899        C904   1.411       .  A
C899        C908   1.403       .  A
C904        C905   1.406       .  A
C904        H909   1.082       .  S
C905        C906   1.405       .  A
C905        H910   1.083       .  S
C906        C907   1.409       .  A
C907        C908   1.391       .  A
C907        H911   1.083       .  S
C908        H912   1.082       .  S
C913        C914   1.405       .  A
C913        C918   1.393       .  A
C913        H923   1.083       .  S
C914        C919   1.490       .  S
C914        C915   1.408       .  A
C915        C916   1.407       .  A
C915        H920   1.083       .  S
C916        C917   1.408       .  A
C916        H921   1.083       .  S
C917        C918   1.406       .  A
C918        H922   1.083       .  S
C919        C924   1.406       .  A
C919        C928   1.409       .  A
C924        C925   1.395       .  A
C924        H929   1.083       .  S
C925        C926   1.402       .  A
C925        H930   1.084       .  S
C926        C927   1.404       .  A
C927        C928   1.404       .  A
C927        H931   1.083       .  S
C928        H932   1.083       .  S
C933        C934   1.410       .  A
C933        C938   1.405       .  A
C933        H943   1.082       .  S
C934        C939   1.492       .  S
C934        C935   1.404       .  A
C935        C936   1.392       .  A
C935        H940   1.082       .  S
C936        C937   1.409       .  A
C936        H941   1.083       .  S
C937        C938   1.405       .  A
C938        H942   1.083       .  S
C939        C944   1.408       .  A
C939        C948   1.408       .  A
C944        C945   1.401       .  A
C944        H949   1.082       .  S
C945        C946   1.406       .  A
C945        H950   1.083       .  S
C946        C947   1.404       .  A
C947        C948   1.396       .  A
C947        H951   1.083       .  S
C948        H952   1.082       .  S
C953        C954   1.408       .  A
C953        C958   1.398       .  A
C953        H963   1.083       .  S
C954        C959   1.492       .  S
C954        C955   1.407       .  A
C955        C956   1.402       .  A
C955        H960   1.083       .  S
C956        C957   1.407       .  A
C956        H961   1.083       .  S
C957        C958   1.406       .  A
C958        H962   1.083       .  S
C959        C964   1.402       .  A
C959        C968   1.411       .  A
C964        C965   1.392       .  A
C964        H969   1.083       .  S
C965        C966   1.411       .  A
C965        H970   1.083       .  S
C966        C967   1.405       .  A
C967        C968   1.407       .  A
C967        H971   1.083       .  S
C968        H972   1.082       .  S
C973        C974   1.408       .  A
C973        C978   1.405       .  A
C973        H983   1.083       .  S
C974        C979   1.485   1_655  S
C974        C975   1.405       .  A
C975        C976   1.391       .  A
C975        H980   1.083       .  S
C976        C977   1.402       .  A
C976        H981   1.084       .  S
C977        C978   1.405       .  A
C978        H982   1.083       .  S
C979        C984   1.407       .  A
C979        C988   1.403   1_455  A
C984        C985   1.407       .  A
C984        H989   1.083       .  S
C985        C986   1.409       .  A
C985        H990   1.083       .  S
C986        C987   1.405   1_455  A
C987        C988   1.388       .  A
C987        H991   1.083       .  S
C988        H992   1.083       .  S
C993        C994   1.403       .  A
C993        C998   1.389       .  A
C993       H1003   1.083       .  S
C994        C999   1.487       .  S
C994        C995   1.408   1_565  A
C995        C996   1.408       .  A
C995       H1000   1.083       .  S
C996        C997   1.408       .  A
C996       H1001   1.083       .  S
C997        C998   1.406   1_545  A
C998       H1002   1.083       .  S
C999       C1004   1.405       .  A
C999       C1008   1.408       .  A
C1004      C1005   1.390       .  A
C1004      H1009   1.083       .  S
C1005      C1006   1.402       .  A
C1005      H1010   1.084       .  S
C1006      C1007   1.406       .  A
C1007      C1008   1.406       .  A
C1007      H1011   1.083       .  S
C1008      H1012   1.083       .  S
C1013      C1014   1.411       .  A
C1013      C1018   1.409       .  A
C1013      H1023   1.083       .  S
C1014      C1019   1.491       .  S
C1014      C1015   1.401       .  A
C1015      C1016   1.389       .  A
C1015      H1020   1.083       .  S
C1016      C1017   1.409       .  A
C1016      H1021   1.083       .  S
C1017      C1018   1.407       .  A
C1018      H1022   1.083       .  S
C1019      C1024   1.405       .  A
C1019      C1028   1.408       .  A
C1024      C1025   1.402       .  A
C1024      H1029   1.083       .  S
C1025      C1026   1.408       .  A
C1025      H1030   1.083       .  S
C1026      C1027   1.406       .  A
C1027      C1028   1.396       .  A
C1027      H1031   1.083       .  S
C1028      H1032   1.083       .  S
C1033      C1034   1.409       .  A
C1033      C1038   1.400       .  A
C1033      H1043   1.082       .  S
C1034      C1039   1.498       .  S
C1034      C1035   1.409       .  A
C1035      C1036   1.403       .  A
C1035      H1040   1.082       .  S
C1036      C1037   1.406       .  A
C1036      H1041   1.083       .  S
C1037      C1038   1.404       .  A
C1038      H1042   1.083       .  S
C1039      C1044   1.406       .  A
C1039      C1048   1.412       .  A
C1044      C1045   1.395       .  A
C1044      H1049   1.082       .  S
C1045      C1046   1.407       .  A
C1045      H1050   1.083       .  S
C1046      C1047   1.405       .  A
C1047      C1048   1.407       .  A
C1047      H1051   1.083       .  S
C1048      H1052   1.082       .  S
C1053      C1054   1.410       .  A
C1053      C1058   1.403       .  A
C1053      H1063   1.083       .  S
C1054      C1059   1.488       .  S
C1054      C1055   1.404       .  A
C1055      C1056   1.390       .  A
C1055      H1060   1.082       .  S
C1056      C1057   1.406       .  A
C1056      H1061   1.083       .  S
C1057      C1058   1.404       .  A
C1058      H1062   1.083       .  S
C1059      C1064   1.407       .  A
C1059      C1068   1.407       .  A
C1064      C1065   1.400       .  A
C1064      H1069   1.083       .  S
C1065      C1066   1.405       .  A
C1065      H1070   1.083       .  S
C1066      C1067   1.404       .  A
C1067      C1068   1.396       .  A
C1067      H1071   1.084       .  S
C1068      H1072   1.083       .  S
C1073      C1074   1.414       .  A
C1073      C1078   1.408       .  A
C1073      H1083   1.082       .  S
C1074      C1079   1.501       .  S
C1074      C1075   1.405       .  A
C1075      C1076   1.393       .  A
C1075      H1080   1.082       .  S
C1076      C1077   1.409       .  A
C1076      H1081   1.083       .  S
C1077      C1078   1.405       .  A
C1078      H1082   1.083       .  S
C1079      C1084   1.408       .  A
C1079      C1088   1.412       .  A
C1084      C1085   1.401       .  A
C1084      H1089   1.082       .  S
C1085      C1086   1.406       .  A
C1085      H1090   1.083       .  S
C1086      C1087   1.405       .  A
C1087      C1088   1.400       .  A
C1087      H1091   1.083       .  S
C1088      H1092   1.082       .  S
C1093      C1094   1.406       .  A
C1093      C1098   1.393       .  A
C1093      H1103   1.082       .  S
C1094      C1099   1.497       .  S
C1094      C1095   1.412       .  A
C1095      C1096   1.406       .  A
C1095      H1100   1.082       .  S
C1096      C1097   1.405       .  A
C1096      H1101   1.083       .  S
C1097      C1098   1.405       .  A
C1098      H1102   1.083       .  S
C1099      C1104   1.409       .  A
C1099      C1108   1.409       .  A
C1104      C1105   1.398       .  A
C1104      H1109   1.082       .  S
C1105      C1106   1.405       .  A
C1105      H1110   1.083       .  S
C1106      C1107   1.406       .  A
C1107      C1108   1.403       .  A
C1107      H1111   1.083       .  S
C1108      H1112   1.082       .  S
C1113      C1114   1.407       .  A
C1113      C1118   1.407       .  A
C1113      H1123   1.083       .  S
C1114      C1119   1.484       .  S
C1114      C1115   1.403       .  A
C1115      C1116   1.391       .  A
C1115      H1120   1.083       .  S
C1116      C1117   1.403       .  A
C1116      H1121   1.083       .  S
C1117      C1118   1.408       .  A
C1118      H1122   1.083       .  S
C1119      C1124   1.407       .  A
C1119      C1128   1.401       .  A
C1124      C1125   1.409       .  A
C1124      H1129   1.083       .  S
C1125      C1126   1.410       .  A
C1125      H1130   1.083       .  S
C1126      C1127   1.408       .  A
C1127      C1128   1.388       .  A
C1127      H1131   1.083       .  S
C1128      H1132   1.084       .  S
C1133      C1134   1.404       .  A
C1133      C1138   1.392       .  A
C1133      H1143   1.083       .  S
C1134      C1139   1.481       .  S
C1134      C1135   1.407       .  A
C1135      C1136   1.404       .  A
C1135      H1140   1.083       .  S
C1136      C1137   1.405       .  A
C1136      H1141   1.083       .  S
C1137      C1138   1.403       .  A
C1138      H1142   1.084       .  S
C1139      C1144   1.402       .  A
C1139      C1148   1.406       .  A
C1144      C1145   1.389       .  A
C1144      H1149   1.083       .  S
C1145      C1146   1.406       .  A
C1145      H1150   1.083       .  S
C1146      C1147   1.409       .  A
C1147      C1148   1.406       .  A
C1147      H1151   1.083       .  S
C1148      H1152   1.083       .  S
C1153      C1154   1.400       .  A
C1153      C1158   1.389       .  A
C1153      H1163   1.083       .  S
C1154      C1159   1.486       .  S
C1154      C1155   1.410       .  A
C1155      C1156   1.407       .  A
C1155      H1160   1.083       .  S
C1156      C1157   1.407       .  A
C1156      H1161   1.083       .  S
C1157      C1158   1.409       .  A
C1158      H1162   1.083       .  S
C1159      C1164   1.407       .  A
C1159      C1168   1.404       .  A
C1164      C1165   1.395       .  A
C1164      H1169   1.083       .  S
C1165      C1166   1.404       .  A
C1165      H1170   1.083       .  S
C1166      C1167   1.408       .  A
C1167      C1168   1.400       .  A
C1167      H1171   1.083       .  S
C1168      H1172   1.083       .  S
C1173      C1174   1.404       .  A
C1173      C1178   1.390       .  A
C1173      H1183   1.082       .  S
C1174      C1179   1.493       .  S
C1174      C1175   1.411       .  A
C1175      C1176   1.406       .  A
C1175      H1180   1.082       .  S
C1176      C1177   1.405       .  A
C1176      H1181   1.083       .  S
C1177      C1178   1.406       .  A
C1178      H1182   1.084       .  S
C1179      C1184   1.408       .  A
C1179      C1188   1.409       .  A
C1184      C1185   1.394       .  A
C1184      H1189   1.082       .  S
C1185      C1186   1.403       .  A
C1185      H1190   1.083       .  S
C1186      C1187   1.406       .  A
C1187      C1188   1.402       .  A
C1187      H1191   1.083       .  S
C1188      H1192   1.082       .  S
C1193      C1194   1.411       .  A
C1193      C1198   1.407       .  A
C1193      H1203   1.082       .  S
C1194      C1199   1.495       .  S
C1194      C1195   1.405       .  A
C1195      C1196   1.394       .  A
C1195      H1200   1.082       .  S
C1196      C1197   1.408       .  A
C1196      H1201   1.083       .  S
C1197      C1198   1.405       .  A
C1198      H1202   1.083       .  S
C1199      C1204   1.408       .  A
C1199      C1208   1.409       .  A
C1204      C1205   1.401       .  A
C1204      H1209   1.082       .  S
C1205      C1206   1.406       .  A
C1205      H1210   1.083       .  S
C1206      C1207   1.403       .  A
C1207      C1208   1.398       .  A
C1207      H1211   1.084       .  S
C1208      H1212   1.082       .  S
C1213      C1214   1.406       .  A
C1213      C1218   1.393   1_556  A
C1213      H1223   1.082       .  S
C1214      C1219   1.495       .  S
C1214      C1215   1.410   1_556  A
C1215      C1216   1.405       .  A
C1215      H1220   1.082       .  S
C1216      C1217   1.405       .  A
C1216      H1221   1.083       .  S
C1217      C1218   1.406       .  A
C1218      H1222   1.083       .  S
C1219      C1224   1.407       .  A
C1219      C1228   1.409       .  A
C1224      C1225   1.396       .  A
C1224      H1229   1.082       .  S
C1225      C1226   1.405       .  A
C1225      H1230   1.083       .  S
C1226      C1227   1.406       .  A
C1227      C1228   1.404       .  A
C1227      H1231   1.083       .  S
C1228      H1232   1.082       .  S
C1233      C1234   1.408       .  A
C1233      C1238   1.402       .  A
C1233      H1243   1.082       .  S
C1234      C1239   1.493       .  S
C1234      C1235   1.408       .  A
C1235      C1236   1.395       .  A
C1235      H1240   1.082       .  S
C1236      C1237   1.404       .  A
C1236      H1241   1.084       .  S
C1237      C1238   1.405       .  A
C1238      H1242   1.083       .  S
C1239      C1244   1.411   1_455  A
C1239      C1248   1.404       .  A
C1244      C1245   1.407       .  A
C1244      H1249   1.082       .  S
C1245      C1246   1.406       .  A
C1245      H1250   1.083       .  S
C1246      C1247   1.407       .  A
C1247      C1248   1.391   1_655  A
C1247      H1251   1.083       .  S
C1248      H1252   1.082       .  S
C1253      C1254   1.406       .  A
C1253      C1258   1.402       .  A
C1253      H1263   1.083       .  S
C1254      C1259   1.476       .  S
C1254      C1255   1.402       .  A
C1255      C1256   1.390       .  A
C1255      H1260   1.084       .  S
C1256      C1257   1.403       .  A
C1256      H1261   1.084       .  S
C1257      C1258   1.404       .  A
C1258      H1262   1.083       .  S
C1259      C1264   1.403       .  A
C1259      C1268   1.402       .  A
C1264      C1265   1.403       .  A
C1264      H1269   1.083       .  S
C1265      C1266   1.409       .  A
C1265      H1270   1.083       .  S
C1266      C1267   1.407       .  A
C1267      C1268   1.390       .  A
C1267      H1271   1.083       .  S
C1268      H1272   1.084       .  S
C1273      C1274   1.403       .  A
C1273      C1278   1.390       .  A
C1273      H1283   1.083       .  S
C1274      C1279   1.489       .  S
C1274      C1275   1.409   1_554  A
C1275      C1276   1.410       .  A
C1275      H1280   1.083       .  S
C1276      C1277   1.407       .  A
C1276      H1281   1.083       .  S
C1277      C1278   1.405   1_556  A
C1278      H1282   1.084       .  S
C1279      C1284   1.403       .  A
C1279      C1288   1.407       .  A
C1284      C1285   1.391       .  A
C1284      H1289   1.083       .  S
C1285      C1286   1.408       .  A
C1285      H1290   1.083       .  S
C1286      C1287   1.410       .  A
C1287      C1288   1.410       .  A
C1287      H1291   1.083       .  S
C1288      H1292   1.083       .  S
C1293      C1294   1.408       .  A
C1293      C1298   1.410       .  A
C1293      H1303   1.083       .  S
C1294      C1299   1.489       .  S
C1294      C1295   1.403       .  A
C1295      C1296   1.391       .  A
C1295      H1300   1.083       .  S
C1296      C1297   1.407       .  A
C1296      H1301   1.083       .  S
C1297      C1298   1.410       .  A
C1298      H1302   1.083       .  S
C1299      C1304   1.409       .  A
C1299      C1308   1.404       .  A
C1304      C1305   1.408       .  A
C1304      H1309   1.083       .  S
C1305      C1306   1.406       .  A
C1305      H1310   1.083       .  S
C1306      C1307   1.403       .  A
C1307      C1308   1.392       .  A
C1307      H1311   1.084       .  S
C1308      H1312   1.083       .  S
C1313      C1314   1.407   1_655  A
C1313      C1318   1.407       .  A
C1313      H1323   1.083       .  S
C1314      C1319   1.488       .  S
C1314      C1315   1.404       .  A
C1315      C1316   1.390       .  A
C1315      H1320   1.083       .  S
C1316      C1317   1.406   1_455  A
C1316      H1321   1.083       .  S
C1317      C1318   1.408       .  A
C1318      H1322   1.083       .  S
C1319      C1324   1.409       .  A
C1319      C1328   1.404       .  A
C1324      C1325   1.407       .  A
C1324      H1329   1.083       .  S
C1325      C1326   1.405       .  A
C1325      H1330   1.083       .  S
C1326      C1327   1.403       .  A
C1327      C1328   1.391       .  A
C1327      H1331   1.084       .  S
C1328      H1332   1.083       .  S
C1333      C1334   1.411   1_455  A
C1333      C1338   1.406       .  A
C1333      H1343   1.082       .  S
C1334      C1339   1.492       .  S
C1334      C1335   1.403       .  A
C1335      C1336   1.391   1_655  A
C1335      H1340   1.082       .  S
C1336      C1337   1.407       .  A
C1336      H1341   1.083       .  S
C1337      C1338   1.405       .  A
C1338      H1342   1.083       .  S
C1339      C1344   1.407       .  A
C1339      C1348   1.409       .  A
C1344      C1345   1.401       .  A
C1344      H1349   1.082       .  S
C1345      C1346   1.406       .  A
C1345      H1350   1.083       .  S
C1346      C1347   1.404       .  A
C1347      C1348   1.397       .  A
C1347      H1351   1.083       .  S
C1348      H1352   1.083       .  S
C1353      C1354   1.408       .  A
C1353      C1358   1.400       .  A
C1353      H1363   1.082       .  S
C1354      C1359   1.493       .  S
C1354      C1355   1.409       .  A
C1355      C1356   1.396       .  A
C1355      H1360   1.082       .  S
C1356      C1357   1.403       .  A
C1356      H1361   1.084       .  S
C1357      C1358   1.405       .  A
C1358      H1362   1.083       .  S
C1359      C1364   1.412       .  A
C1359      C1368   1.405       .  A
C1364      C1365   1.404       .  A
C1364      H1369   1.082       .  S
C1365      C1366   1.403       .  A
C1365      H1370   1.083       .  S
C1366      C1367   1.405       .  A
C1367      C1368   1.391       .  A
C1367      H1371   1.084       .  S
C1368      H1372   1.082       .  S
C1373      C1374   1.410   1_565  A
C1373      C1378   1.404       .  A
C1373      H1383   1.082       .  S
C1374      C1379   1.488       .  S
C1374      C1375   1.404       .  A
C1375      C1376   1.390   1_545  A
C1375      H1380   1.083       .  S
C1376      C1377   1.407       .  A
C1376      H1381   1.083       .  S
C1377      C1378   1.404       .  A
C1378      H1382   1.083       .  S
C1379      C1384   1.408       .  A
C1379      C1388   1.406       .  A
C1384      C1385   1.401       .  A
C1384      H1389   1.083       .  S
C1385      C1386   1.405       .  A
C1385      H1390   1.083       .  S
C1386      C1387   1.405       .  A
C1387      C1388   1.395       .  A
C1387      H1391   1.083       .  S
C1388      H1392   1.083       .  S
C1393      C1394   1.412   1_545  A
C1393      C1398   1.406       .  A
C1393      H1403   1.082       .  S
C1394      C1399   1.493       .  S
C1394      C1395   1.403       .  A
C1395      C1396   1.390   1_565  A
C1395      H1400   1.082       .  S
C1396      C1397   1.409       .  A
C1396      H1401   1.083       .  S
C1397      C1398   1.404       .  A
C1398      H1402   1.083       .  S
C1399      C1404   1.407       .  A
C1399      C1408   1.409       .  A
C1404      C1405   1.400       .  A
C1404      H1409   1.082       .  S
C1405      C1406   1.406       .  A
C1405      H1410   1.083       .  S
C1406      C1407   1.403       .  A
C1407      C1408   1.396       .  A
C1407      H1411   1.083       .  S
C1408      H1412   1.082       .  S
C1413      C1414   1.407       .  A
C1413      C1418   1.401       .  A
C1413      H1423   1.083       .  S
C1414      C1419   1.488       .  S
C1414      C1415   1.407       .  A
C1415      C1416   1.396       .  A
C1415      H1420   1.083       .  S
C1416      C1417   1.404       .  A
C1416      H1421   1.083       .  S
C1417      C1418   1.406       .  A
C1418      H1422   1.083       .  S
C1419      C1424   1.409       .  A
C1419      C1428   1.403       .  A
C1424      C1425   1.405       .  A
C1424      H1429   1.083       .  S
C1425      C1426   1.406       .  A
C1425      H1430   1.083       .  S
C1426      C1427   1.408       .  A
C1427      C1428   1.391       .  A
C1427      H1431   1.083       .  S
C1428      H1432   1.083       .  S
C1433      C1434   1.412       .  A
C1433      C1438   1.409       .  A
C1433      H1443   1.082       .  S
C1434      C1439   1.501       .  S
C1434      C1435   1.406       .  A
C1435      C1436   1.396       .  A
C1435      H1440   1.082       .  S
C1436      C1437   1.408       .  A
C1436      H1441   1.083       .  S
C1437      C1438   1.407       .  A
C1438      H1442   1.083       .  S
C1439      C1444   1.409       .  A
C1439      C1448   1.409       .  A
C1444      C1445   1.406       .  A
C1444      H1449   1.082       .  S
C1445      C1446   1.408       .  A
C1445      H1450   1.083       .  S
C1446      C1447   1.406       .  A
C1447      C1448   1.400       .  A
C1447      H1451   1.083       .  S
C1448      H1452   1.082       .  S
C1453      C1454   1.411   1_556  A
C1453      C1458   1.409       .  A
C1453      H1463   1.082       .  S
C1454      C1459   1.492       .  S
C1454      C1455   1.403       .  A
C1455      C1456   1.391   1_554  A
C1455      H1460   1.083       .  S
C1456      C1457   1.409       .  A
C1456      H1461   1.083       .  S
C1457      C1458   1.406       .  A
C1458      H1462   1.083       .  S
C1459      C1464   1.407       .  A
C1459      C1468   1.408       .  A
C1464      C1465   1.402       .  A
C1464      H1469   1.082       .  S
C1465      C1466   1.407       .  A
C1465      H1470   1.083       .  S
C1466      C1467   1.404       .  A
C1467      C1468   1.395       .  A
C1467      H1471   1.083       .  S
C1468      H1472   1.083       .  S
C1473      C1474   1.406       .  A
C1473      C1478   1.407       .  A
C1473      H1483   1.083       .  S
C1474      C1479   1.481       .  S
C1474      C1475   1.401       .  A
C1475      C1476   1.388       .  A
C1475      H1480   1.084       .  S
C1476      C1477   1.407       .  A
C1476      H1481   1.083       .  S
C1477      C1478   1.408       .  A
C1478      H1482   1.083       .  S
C1479      C1484   1.405       .  A
C1479      C1488   1.405       .  A
C1484      C1485   1.393       .  A
C1484      H1489   1.083       .  S
C1485      C1486   1.402       .  A
C1485      H1490   1.084       .  S
C1486      C1487   1.405       .  A
C1487      C1488   1.404       .  A
C1487      H1491   1.083       .  S
C1488      H1492   1.083       .  S
C1493      C1494   1.400       .  A
C1493      C1498   1.391       .  A
C1493      H1503   1.084       .  S
C1494      C1499   1.473       .  S
C1494      C1495   1.404       .  A
C1495      C1496   1.406       .  A
C1495      H1500   1.083       .  S
C1496      C1497   1.408       .  A
C1496      H1501   1.083       .  S
C1497      C1498   1.405       .  A
C1498      H1502   1.083       .  S
C1499      C1504   1.400       .  A
C1499      C1508   1.403   1_545  A
C1504      C1505   1.391       .  A
C1504      H1509   1.084       .  S
C1505      C1506   1.406   1_545  A
C1505      H1510   1.083       .  S
C1506      C1507   1.408       .  A
C1507      C1508   1.405       .  A
C1507      H1511   1.083       .  S
C1508      H1512   1.083       .  S
