geometry optimzed in LAMMPS
_audit_creation_date              2020-11-30 
_audit_creation_method            'lammps2cif' 
_symmetry_space_group_name_H-M    'P1' 
_symmetry_Int_Tables_number       1 
_symmetry_cell_setting            triclinic 
loop_ 
_symmetry_equiv_pos_as_xyz 
  x,y,z 
_cell_length_a                    37.45285625111199 
_cell_length_b                    56.872704278578496 
_cell_length_c                    27.48333755965187 
_cell_angle_alpha                 90.05505309449516 
_cell_angle_beta                  89.96686287618654 
_cell_angle_gamma                 90.25685269116045 
loop_ 
_atom_site_label 
_atom_site_type_symbol 
_atom_site_fract_x 
_atom_site_fract_y 
_atom_site_fract_z 
_atom_site_charge 
N1          N  0.81458212  0.10487526  0.19548764    -0.27580
N2          N  0.80061574  0.08428418  0.20755955    -0.35440
C3          C  0.81932324  0.06710763  0.18573939     0.00760
C4          C  0.84641389  0.07743796  0.15908361     0.06790
C5          C  0.84271168  0.10135112  0.16595047    -0.06310
H6          H  0.81360805  0.04851086  0.18901653     0.07450
H7          H  0.85897376  0.11517022  0.15022501     0.08650
Cu8        Cu  0.75631613  0.08046614  0.25220055     0.44170
Cu9        Cu  0.79375081  0.13683469  0.21770179     0.41990
Cu10       Cu  0.70818053  0.13408733  0.27845637     0.43880
N11         N  0.70910758  0.08145559  0.29155351    -0.34970
N12         N  0.69072276  0.10088792  0.29895785    -0.29220
C13         C  0.66080534  0.09551643  0.32358560    -0.05640
C14         C  0.66013715  0.07147915  0.33241150     0.06900
C15         C  0.69166569  0.06326815  0.31205697     0.00690
H16         H  0.64105213  0.10830496  0.33446591     0.08340
H17         H  0.70201370  0.04559040  0.31306478     0.07420
N18         N  0.73377418  0.16530408  0.26045821    -0.36410
N19         N  0.76551878  0.16628484  0.23946785    -0.28590
C20         C  0.77519598  0.18893641  0.23418867    -0.03830
C21         C  0.74802123  0.20287982  0.25206702     0.04780
C22         C  0.72230391  0.18731835  0.26880063     0.02870
H23         H  0.80004132  0.19483206  0.21804753     0.07980
H24         H  0.69737426  0.19164644  0.28654810     0.06810
O25         O  0.96299406  0.00969723  0.05719243    -0.73230
O26         O  0.03674338  0.97634542  0.97669719    -0.74210
O27         O  0.03844223  0.00888174  0.05533799    -0.62830
O28         O  0.96121300  0.97673562  0.97918644    -0.71240
O29         O  0.96241230  0.00543702  0.92436990    -0.70800
O30         O  0.03717909  0.03906446  0.00406590    -0.62050
O31         O  0.03824125  0.00638423  0.92530235    -0.74560
O32         O  0.96127191  0.03833596  0.00231627    -0.73340
Cu33       Cu  0.99986098  0.99188316  0.01892649     1.04560
Cu34       Cu  0.99979787  0.02335735  0.96213940     1.04330
C35         C  0.95037608  0.02921418  0.04211224     0.92960
C36         C  0.04929571  0.98615678  0.93844453     0.92100
C37         C  0.04953612  0.02914128  0.04218778     0.84250
C38         C  0.95000218  0.98581693  0.93963349     0.90520
N39         N  0.30869027  0.10213705  0.30403763    -0.27580
N40         N  0.29493012  0.08218129  0.28777793    -0.35440
C41         C  0.31391022  0.06415004  0.30584176     0.00760
C42         C  0.34062609  0.07319847  0.33533984     0.06790
C43         C  0.33676908  0.09735745  0.33270889    -0.06310
H44         H  0.30827247  0.04579249  0.29874381     0.07450
H45         H  0.35327208  0.11057988  0.35001066     0.08650
Cu46       Cu  0.25024436  0.08044437  0.24324549     0.44170
Cu47       Cu  0.28846305  0.13507223  0.28805458     0.41990
Cu48       Cu  0.20976654  0.13643401  0.21280012     0.43880
N49         N  0.20364383  0.08373154  0.20300715    -0.34970
N50         N  0.18845909  0.10411476  0.19304924    -0.29220
C51         C  0.15846938  0.10020439  0.16735879    -0.05320
C52         C  0.15458080  0.07621486  0.16080744     0.06900
C53         C  0.18388931  0.06632579  0.18342813     0.00690
H54         H  0.14136496  0.11387478  0.15322799     0.08340
H55         H  0.19040996  0.04783937  0.18542455     0.07420
N56         N  0.23567345  0.16639597  0.23761340    -0.36410
N57         N  0.26389015  0.16589625  0.26647748    -0.28590
C58         C  0.27337508  0.18806944  0.27785734    -0.03830
C59         C  0.25037272  0.20317429  0.25428935     0.04780
C60         C  0.22675125  0.18890453  0.22922381     0.02870
H61         H  0.29547389  0.19282999  0.30126904     0.07980
H62         H  0.20432651  0.19445432  0.20731292     0.06810
N63         N  0.69078191  0.90266484  0.68976584    -0.27580
N64         N  0.70462101  0.92323596  0.70206938    -0.35440
C65         C  0.68589675  0.94036416  0.68023060     0.00760
C66         C  0.65921888  0.93005231  0.65243339     0.06790
C67         C  0.66290590  0.90612342  0.65989866    -0.06310
H68         H  0.69137679  0.95896298  0.68415788     0.07450
H69         H  0.64616266  0.89220468  0.64561634     0.08650
Cu70       Cu  0.74842424  0.92690111  0.74772802     0.44170
Cu71       Cu  0.71043522  0.87079432  0.71360985     0.41990
Cu72       Cu  0.79110751  0.87257339  0.78547665     0.43880
N73         N  0.79376858  0.92556190  0.79100674    -0.34970
N74         N  0.80991351  0.90581475  0.80341700    -0.29220
C75         C  0.83897587  0.91104227  0.83010538    -0.05320
C76         C  0.84086211  0.93517924  0.83533643     0.06900
C77         C  0.81190829  0.94386077  0.80998568     0.00690
H78         H  0.85706990  0.89820046  0.84524396     0.08340
H79         H  0.80477304  0.96212689  0.80521373     0.07420
N80         N  0.76517856  0.84168717  0.76599821    -0.36410
N81         N  0.73552246  0.84113475  0.73999152    -0.28590
C82         C  0.72532435  0.81866530  0.73363547    -0.03830
C83         C  0.74950720  0.80433747  0.75725562     0.04780
C84         C  0.77464858  0.81953129  0.77690981     0.02870
H85         H  0.70242804  0.81321470  0.71239991     0.07980
H86         H  0.79804789  0.81482857  0.79776284     0.06810
O87         O  0.46123355  0.03073858  0.47970307    -0.73230
O88         O  0.53630317  0.99825030  0.55801541    -0.74210
O89         O  0.53683893  0.03157658  0.48176439    -0.62830
O90         O  0.46071984  0.99738068  0.55618209    -0.71240
O91         O  0.46178963  0.96862637  0.50170602    -0.70800
O92         O  0.53818902  0.00295923  0.42733079    -0.62050
O93         O  0.53773987  0.96942276  0.50414487    -0.74560
O94         O  0.46230310  0.00209501  0.42533594    -0.73340
Cu95       Cu  0.49873374  0.01546239  0.52074645     1.04560
Cu96       Cu  0.50008264  0.98474773  0.46274512     1.04330
C97         C  0.44971939  0.02167487  0.44008650     0.92960
C98         C  0.54904555  0.97866703  0.54374645     0.92100
C99         C  0.54952488  0.02287787  0.44262987     0.84250
C100        C  0.44895216  0.97767367  0.54047195     0.90520
N101        N  0.30397863  0.90249996  0.68102911    -0.27580
N102        N  0.29201707  0.92305719  0.69640595    -0.35440
C103        C  0.31316153  0.94022516  0.67877187     0.00760
C104        C  0.33948666  0.92993484  0.65080254     0.06790
C105        C  0.33275724  0.90605609  0.65262939    -0.06310
H106        H  0.30941120  0.95880629  0.68536850     0.07450
H107        H  0.34798441  0.89227001  0.63528940     0.08650
Cu108      Cu  0.24733393  0.92686866  0.74019309     0.44170
Cu109      Cu  0.28231095  0.87047343  0.70209861     0.41990
Cu110      Cu  0.21881804  0.87355430  0.80077125     0.43880
N111        N  0.20361172  0.92514520  0.78633892    -0.34970
N112        N  0.19446797  0.90594197  0.81034799    -0.29220
C113        C  0.16605421  0.91065742  0.83849591    -0.05320
C114        C  0.15595318  0.93383440  0.83100285     0.06900
C115        C  0.18083389  0.94248368  0.79798058     0.00690
H116        H  0.15438514  0.89810246  0.86337604     0.08340
H117        H  0.18239761  0.96012307  0.78341035     0.07420
N118        N  0.23921260  0.84222729  0.77398237    -0.36410
N119        N  0.26102123  0.84109178  0.73628568    -0.28590
C120        C  0.26750982  0.81839739  0.72604379    -0.03830
C121        C  0.24878064  0.80441234  0.75870878     0.04780
C122        C  0.23155364  0.82027716  0.78903451     0.02870
H123        H  0.28465127  0.81251459  0.69680948     0.07980
H124        H  0.21519553  0.81638125  0.82042397     0.06810
N125        N  0.81053223  0.60390123  0.82978849    -0.27580
N126        N  0.79935649  0.58351921  0.81208831    -0.35440
C127        C  0.81847747  0.56614268  0.83248769     0.00760
C128        C  0.84225909  0.57611220  0.86509757     0.06790
C129        C  0.83667394  0.60004649  0.86223869    -0.06310
H130        H  0.81498925  0.54762669  0.82469581     0.07450
H131        H  0.85091323  0.61369472  0.88174103     0.08650
Cu132      Cu  0.75714351  0.58016697  0.76341552     0.44170
Cu133      Cu  0.79071041  0.63623253  0.80897387     0.41990
Cu134      Cu  0.71051108  0.63469210  0.73854831     0.43880
N135        N  0.71019986  0.58216568  0.72330534    -0.34970
N136        N  0.69251248  0.60194433  0.71663884    -0.29220
C137        C  0.66253350  0.59737044  0.69155212    -0.05320
C138        C  0.66152529  0.57360386  0.68048969     0.06900
C139        C  0.69205941  0.56449465  0.70190364     0.00690
H140        H  0.64274793  0.61049486  0.68300276     0.08340
H141        H  0.70056545  0.54634213  0.70185830     0.07420
N142        N  0.73685660  0.66554768  0.75624771    -0.36410
N143        N  0.76668023  0.66611706  0.78182618    -0.28590
C144        C  0.77754439  0.68855892  0.78657007    -0.03830
C145        C  0.75352482  0.70280409  0.76233988     0.04780
C146        C  0.72788122  0.68760723  0.74398599     0.02870
H147        H  0.80069336  0.69407125  0.80722087     0.07980
H148        H  0.70442280  0.69224197  0.72318798     0.06810
N149        N  0.80615629  0.40579655  0.21208137    -0.27580
N150        N  0.79071837  0.42556298  0.22604576    -0.35440
C151        C  0.80895647  0.44391198  0.20750634     0.00760
C152        C  0.83711960  0.43519117  0.18071424     0.06790
C153        C  0.83472301  0.41103398  0.18441553    -0.06310
H154        H  0.80239584  0.46219201  0.21347754     0.07450
H155        H  0.85243287  0.39822259  0.16830119     0.08650
Cu156      Cu  0.74606066  0.42673634  0.27038451     0.44170
Cu157      Cu  0.78764623  0.37260337  0.23086497     0.41990
Cu158      Cu  0.70456446  0.37070440  0.29798780     0.43880
N159        N  0.70164487  0.42303591  0.31464569    -0.34970
N160        N  0.68596709  0.40263566  0.32376636    -0.29220
C161        C  0.65789770  0.40623490  0.35332315    -0.05320
C162        C  0.65619432  0.42997577  0.36388286     0.06900
C163        C  0.68415054  0.44013633  0.33846056     0.00690
H164        H  0.64036856  0.39252512  0.36679043     0.08340
H165        H  0.69105901  0.45861317  0.33690267     0.07420
N166        N  0.73149493  0.34098445  0.27478853    -0.36410
N167        N  0.76243903  0.34165916  0.25163077    -0.28590
C168        C  0.77353274  0.31953273  0.24361705    -0.03830
C169        C  0.74835845  0.30423726  0.26270141     0.04780
C170        C  0.72190693  0.31841970  0.28171071     0.02870
H171        H  0.79782745  0.31493296  0.22457509     0.07980
H172        H  0.69766782  0.31275255  0.29979008     0.06810
N173        N  0.30958256  0.60049506  0.71544993    -0.27580
N174        N  0.30083232  0.58154700  0.74069576    -0.35440
C175        C  0.32164823  0.56356864  0.72663914     0.00760
C176        C  0.34484178  0.57164964  0.69113533     0.06790
C177        C  0.33618609  0.59506295  0.68463196    -0.06310
H178        H  0.31941573  0.54581243  0.74044604     0.07450
H179        H  0.34847075  0.60729843  0.65947574     0.08650
Cu180      Cu  0.25998777  0.58067666  0.79147488     0.44170
Cu181      Cu  0.28576779  0.63305064  0.72486761     0.41990
Cu182      Cu  0.21412799  0.63556740  0.81269665     0.43880
N183        N  0.21365141  0.58346104  0.83211545    -0.34970
N184        N  0.19567920  0.60319801  0.83728578    -0.29220
C185        C  0.16522465  0.59858077  0.86138434    -0.05320
C186        C  0.16383959  0.57470637  0.87247932     0.06900
C187        C  0.19563135  0.56590366  0.85388373     0.00690
H188        H  0.14546831  0.61176825  0.86983227     0.08340
H189        H  0.20586018  0.54832041  0.85650160     0.07420
N190        N  0.23829058  0.66517287  0.78287309    -0.36410
N191        N  0.26308729  0.66419793  0.74879507    -0.28590
C192        C  0.27206660  0.68619380  0.73553034    -0.03830
C193        C  0.25278660  0.70201572  0.76363861     0.04780
C194        C  0.23141997  0.68783856  0.79294115     0.02870
H195        H  0.29067595  0.69005337  0.70660507     0.07980
H196        H  0.21220857  0.69353805  0.81983231     0.06810
O197        O  0.96102019  0.53790239  0.01817329    -0.73230
O198        O  0.03658772  0.50486659  0.09616587    -0.74210
O199        O  0.03683422  0.53816174  0.01955659    -0.62830
O200        O  0.96076768  0.50454895  0.09557813    -0.71240
O201        O  0.96001386  0.47605923  0.04020555    -0.70800
O202        O  0.03801535  0.50887308  0.96644334    -0.62050
O203        O  0.03582647  0.47544590  0.04286653    -0.74560
O204        O  0.96260745  0.50915666  0.96375814    -0.73340
Cu205      Cu  0.99875070  0.52239486  0.05931190     1.04560
Cu206      Cu  0.99913116  0.49136786  0.00150577     1.04330
C207        C  0.95032705  0.52887469  0.97805616     0.92960
C208        C  0.04800256  0.48493884  0.08156889     0.92100
C209        C  0.04952361  0.52888080  0.98096759     0.84250
C210        C  0.94828852  0.48508135  0.07963550     0.90520
O211        O  0.46279646  0.50150573  0.59529691    -0.73230
O212        O  0.53789663  0.46764056  0.51810163    -0.74210
O213        O  0.53877696  0.50152303  0.59411032    -0.62830
O214        O  0.46209793  0.46770757  0.51930288    -0.71240
O215        O  0.46167670  0.49635837  0.46504093    -0.70800
O216        O  0.53868712  0.52983205  0.53902653    -0.62050
O217        O  0.53723716  0.49624796  0.46307848    -0.74560
O218        O  0.46295256  0.53005097  0.54051991    -0.73340
Cu219      Cu  0.50042221  0.48358819  0.55865326     1.04560
Cu220      Cu  0.50014923  0.51411569  0.50008435     1.04330
C221        C  0.45065443  0.52106396  0.57965923     0.92960
C222        C  0.54919155  0.47663838  0.47838690     0.92100
C223        C  0.55116695  0.52100879  0.57823298     0.84250
C224        C  0.44950927  0.47668489  0.48040793     0.90520
N225        N  0.18854530  0.40525038  0.21552871    -0.27580
N226        N  0.20308541  0.42516007  0.23080733    -0.35440
C227        C  0.18380621  0.44330220  0.21390002     0.00760
C228        C  0.15544495  0.43433652  0.18748534     0.06790
C229        C  0.15940859  0.41018193  0.18895929    -0.06310
H230        H  0.18965419  0.46163024  0.22100265     0.07450
H231        H  0.14254903  0.39714245  0.17165713     0.08650
Cu232      Cu  0.24755996  0.42676071  0.27547366     0.44170
Cu233      Cu  0.20868101  0.37221958  0.23135408     0.41990
Cu234      Cu  0.28345194  0.37078080  0.31413158     0.43880
N235        N  0.29154999  0.42341230  0.32054361    -0.34970
N236        N  0.30471639  0.40297486  0.33443293    -0.29220
C237        C  0.33338826  0.40682118  0.36275488    -0.05320
C238        C  0.33876308  0.43084667  0.36662109     0.06900
C239        C  0.31139965  0.44081314  0.33986910     0.00690
H240        H  0.34934324  0.39310227  0.37902746     0.08340
H241        H  0.30582788  0.45932136  0.33534701     0.07420
N242        N  0.25913343  0.34091362  0.28632724    -0.36410
N243        N  0.23252737  0.34139911  0.25474564    -0.28590
C244        C  0.22390905  0.31921189  0.24223606    -0.03830
C245        C  0.24576021  0.30412162  0.26785957     0.04780
C246        C  0.26785036  0.31842962  0.29529028     0.02870
H247        H  0.20309325  0.31442297  0.21676561     0.07980
H248        H  0.28911688  0.31292809  0.31930053     0.06810
C249        C  0.41137537  0.47360408  0.40657644    -0.09450
C250        C  0.42090342  0.46448435  0.45235003     0.06750
C251        C  0.40290698  0.44409376  0.46930402    -0.03210
C252        C  0.37639954  0.43358835  0.44064651    -0.07660
C253        C  0.36689769  0.44287959  0.39522706     0.05870
C254        C  0.38490719  0.46304729  0.37806489    -0.02690
Br255      Br  0.37699602  0.47609221  0.31457114    -0.02380
H256        H  0.42497527  0.48895002  0.39219719     0.09780
H257        H  0.36273448  0.41811197  0.45434689     0.07800
Br258      Br  0.41194091  0.42949550  0.53112756    -0.02810
C259        C  0.13764525  0.46576350  0.12986731    -0.09450
C260        C  0.12752854  0.44772385  0.16195693     0.06750
C261        C  0.09096700  0.44256290  0.16843295    -0.03210
C262        C  0.06535080  0.45495139  0.14196104    -0.07660
C263        C  0.07555157  0.47269990  0.10950752     0.05870
C264        C  0.11193056  0.47814912  0.10344884    -0.02690
Br265      Br  0.12752251  0.50169932  0.05810155    -0.02380
H266        H  0.16566737  0.46985483  0.12450461     0.09780
H267        H  0.03734022  0.45074464  0.14679479     0.07800
Br268      Br  0.07438617  0.41989761  0.21505007    -0.02810
C269        C  0.11183338  0.57573128  0.92914294    -0.09450
C270        C  0.13481691  0.56224328  0.89976293     0.06750
C271        C  0.12843474  0.53766042  0.89673082    -0.03210
C272        C  0.10083481  0.52741260  0.92382447    -0.07660
C273        C  0.07822302  0.54095151  0.95323794     0.05870
C274        C  0.08354915  0.56551654  0.95490378    -0.02690
Br275      Br  0.05193302  0.58658585  0.98841870    -0.02380
H276        H  0.11551315  0.59453493  0.93216807     0.09780
H277        H  0.09683288  0.50856974  0.92140849     0.07800
Br278      Br  0.15337328  0.51655072  0.85421715    -0.02810
C279        C  0.37255836  0.56054694  0.61265350    -0.09450
C280        C  0.37151103  0.55806625  0.66337681     0.06750
C281        C  0.39604318  0.54293224  0.68622559    -0.03210
C282        C  0.42119753  0.53081451  0.65822588    -0.07660
C283        C  0.42258554  0.53350055  0.60743497     0.05870
C284        C  0.39742809  0.54828840  0.58456257    -0.02690
Br285      Br  0.39378612  0.55146840  0.51512288    -0.02380
H286        H  0.35342996  0.57180892  0.59461053     0.09780
H287        H  0.44036914  0.51966709  0.67647553     0.07800
Br288      Br  0.39844306  0.53948257  0.75562022    -0.02810
C289        C  0.59295655  0.43709898  0.38581796    -0.09450
C290        C  0.62924950  0.44188531  0.39418297     0.06750
C291        C  0.63896065  0.45785851  0.43126536    -0.03210
C292        C  0.61243481  0.46890796  0.45876538    -0.07660
C293        C  0.57628335  0.46432164  0.44977012     0.05870
C294        C  0.56649871  0.44835736  0.41303173    -0.02690
Br295      Br  0.51734978  0.44175931  0.39851797    -0.02380
H296        H  0.58515797  0.42489159  0.35744188     0.09780
H297        H  0.62001936  0.48109350  0.48730502     0.07800
Br298      Br  0.68781370  0.46416584  0.44802551    -0.02810
C299        C  0.89733712  0.45315956  0.17866106    -0.09450
C300        C  0.86480766  0.44871672  0.15518633     0.06750
C301        C  0.85953541  0.45675191  0.10737353    -0.03210
C302        C  0.88715974  0.46852005  0.08314439    -0.07660
C303        C  0.91976802  0.47296177  0.10655473     0.05870
C304        C  0.92467320  0.46543470  0.15488815    -0.02690
Br305      Br  0.96870209  0.47045515  0.18902441    -0.02380
H306        H  0.90150232  0.44697399  0.21549275     0.09780
H307        H  0.88308433  0.47441902  0.04608776     0.07800
Br308      Br  0.81518586  0.45191574  0.07390128    -0.02810
C309        C  0.89440638  0.54973553  0.87099107    -0.09450
C310        C  0.86934841  0.56396960  0.89451999     0.06750
C311        C  0.87123828  0.56684779  0.94533926    -0.03210
C312        C  0.89796342  0.55545564  0.97178233    -0.07660
C313        C  0.92318388  0.54113021  0.94836906     0.05870
C314        C  0.92147166  0.53859043  0.89718757    -0.02690
Br315      Br  0.95656053  0.52173823  0.86007649    -0.02380
H316        H  0.89349480  0.54780267  0.83178839     0.09780
H317        H  0.89861957  0.55749968  0.01095869     0.07800
Br318      Br  0.83674497  0.58497382  0.98067335    -0.02810
C319        C  0.62642579  0.53693221  0.66660856    -0.09450
C320        C  0.63344493  0.56038868  0.65360017     0.06750
C321        C  0.61386753  0.57034488  0.61485147    -0.03210
C322        C  0.58723353  0.55720772  0.59171009    -0.07660
C323        C  0.57978654  0.53383505  0.60504189     0.05870
C324        C  0.60028926  0.52357256  0.64267205    -0.02690
Br325      Br  0.59582378  0.49126773  0.66234032    -0.02380
H326        H  0.64138215  0.52882040  0.69577885     0.09780
H327        H  0.57252773  0.56540413  0.56239339     0.07800
Br328      Br  0.62368319  0.60084691  0.58787919    -0.02810
C329        C  0.22154820  0.74011603  0.77620106    -0.09450
C330        C  0.25277586  0.72826930  0.76202583     0.06750
C331        C  0.28266133  0.74192775  0.74751748    -0.03210
C332        C  0.28041087  0.76649139  0.74689131    -0.07660
C333        C  0.24918433  0.77825847  0.76104033     0.05870
C334        C  0.21943518  0.76467866  0.77591013    -0.02690
Br335      Br  0.17404954  0.77790963  0.79299576    -0.02380
H336        H  0.19802896  0.73021724  0.78673970     0.09780
H337        H  0.30377686  0.77652063  0.73613652     0.07800
Br338      Br  0.32846605  0.72907615  0.73129202    -0.02810
C339        C  0.42036344  0.96697472  0.61895251    -0.09450
C340        C  0.42067236  0.96524031  0.56793887     0.06750
C341        C  0.39388159  0.95180276  0.54455743    -0.03210
C342        C  0.36803913  0.94009089  0.57232978    -0.07660
C343        C  0.36783040  0.94193045  0.62315561     0.05870
C344        C  0.39425047  0.95546419  0.64656055    -0.02690
Br345      Br  0.39685188  0.95777032  0.71613458    -0.02380
H346        H  0.44082018  0.97708060  0.63753051     0.09780
H347        H  0.34742328  0.92997477  0.55410100     0.07800
Br348      Br  0.38924033  0.95027449  0.47501968    -0.02810
C349        C  0.78250301  0.76672308  0.75135582    -0.09450
C350        C  0.74997015  0.77836482  0.75865298     0.06750
C351        C  0.71876822  0.76494473  0.76686076    -0.03210
C352        C  0.72059491  0.74040884  0.76725581    -0.07660
C353        C  0.75313240  0.72876285  0.76015524     0.05870
C354        C  0.78430821  0.74216477  0.75166581    -0.02690
Br355      Br  0.82949208  0.72813540  0.73646661    -0.02380
H356        H  0.80658697  0.77679222  0.74426210     0.09780
H357        H  0.69650188  0.73035996  0.77440994     0.07800
Br358      Br  0.67343804  0.77886852  0.78168467    -0.02810
C359        C  0.59312251  0.94627781  0.55303628    -0.09450
C360        C  0.57719040  0.96657299  0.57262132     0.06750
C361        C  0.58905201  0.97470037  0.61872719    -0.03210
C362        C  0.61587571  0.96257194  0.64351063    -0.07660
C363        C  0.63136095  0.94225864  0.62396743     0.05870
C364        C  0.61993356  0.93422057  0.57797303    -0.02690
Br365      Br  0.64158521  0.90806626  0.54521668    -0.02380
H366        H  0.58511279  0.93980786  0.51760839     0.09780
H367        H  0.62434228  0.96891034  0.67886445     0.07800
Br368      Br  0.57016967  0.00182727  0.65151030    -0.02810
C369        C  0.24332285  0.23969537  0.30244602    -0.09450
C370        C  0.24983452  0.22899029  0.25736347     0.06750
C371        C  0.25498412  0.24307924  0.21584532    -0.03210
C372        C  0.25309652  0.26756771  0.21979151    -0.07660
C373        C  0.24654377  0.27828833  0.26487103     0.05870
C374        C  0.24145805  0.26418191  0.30642069    -0.02690
Br375      Br  0.22954629  0.27743988  0.36854893    -0.02380
H376        H  0.23894978  0.22894168  0.33445525     0.09780
H377        H  0.25744402  0.27830591  0.18775466     0.07800
Br378      Br  0.26678872  0.22972129  0.15378623    -0.02810
C379        C  0.40436037  0.05332005  0.43442568    -0.09450
C380        C  0.42146246  0.03413012  0.41213249     0.06750
C381        C  0.41080082  0.02763077  0.36445786    -0.03210
C382        C  0.38419763  0.04045216  0.34055362    -0.07660
C383        C  0.36782838  0.05984211  0.36274761     0.05870
C384        C  0.37780035  0.06601063  0.41053435    -0.02690
Br385      Br  0.35444420  0.09031775  0.44702977    -0.02380
H386        H  0.41126795  0.05843104  0.47120399     0.09780
H387        H  0.37669635  0.03547688  0.30389194     0.07800
Br388      Br  0.43148171  0.00207314  0.32853193    -0.02810
C389        C  0.88649886  0.97612261  0.92489298    -0.09450
C390        C  0.92235155  0.97344745  0.91162060     0.06750
C391        C  0.93131261  0.95817844  0.87328311    -0.03210
C392        C  0.90440491  0.94572108  0.84893953    -0.07660
C393        C  0.86841101  0.94867920  0.86167099     0.05870
C394        C  0.85948889  0.96410164  0.89990856    -0.02690
Br395      Br  0.81119986  0.96823773  0.92151697    -0.02380
H396        H  0.87952447  0.98736704  0.95514499     0.09780
H397        H  0.91155246  0.93384879  0.81970859     0.07800
Br398      Br  0.97989956  0.95354922  0.85363593    -0.02810
C399        C  0.06543997  0.05732484  0.10738979    -0.09450
C400        C  0.07652152  0.04122420  0.07190061     0.06750
C401        C  0.11301096  0.03604869  0.06707470    -0.03210
C402        C  0.13801563  0.04745850  0.09669078    -0.07660
C403        C  0.12713248  0.06396378  0.13161182     0.05870
C404        C  0.09039015  0.06856808  0.13748579    -0.02690
Br405      Br  0.07265846  0.08841629  0.18850907    -0.02380
H406        H  0.03722840  0.06081262  0.11230397     0.09780
H407        H  0.16612812  0.04360459  0.09206018     0.07800
Br408      Br  0.12981720  0.01347119  0.02074642    -0.02810
C409        C  0.13082851  0.97167646  0.86153713    -0.09450
C410        C  0.12698430  0.94720326  0.85565802     0.06750
C411        C  0.09578942  0.93626143  0.87412526    -0.03210
C412        C  0.07156875  0.94925778  0.90185517    -0.07660
C413        C  0.07600204  0.97351563  0.90877359     0.05870
C414        C  0.10532959  0.98491326  0.88666973    -0.02690
Br415      Br  0.11287578  0.01827786  0.89058221    -0.02380
H416        H  0.15404038  0.98067837  0.84704898     0.09780
H417        H  0.04826112  0.94045100  0.91669886     0.07800
Br418      Br  0.08185620  0.90458856  0.85865568    -0.02810
C419        C  0.71863625  0.26649102  0.24212175    -0.09450
C420        C  0.74855058  0.27831741  0.26088797     0.06750
C421        C  0.77806700  0.26519145  0.27706912    -0.03210
C422        C  0.77744840  0.24064851  0.27357313    -0.07660
C423        C  0.74757231  0.22880616  0.25465240     0.05870
C424        C  0.71802708  0.24195336  0.23854288    -0.02690
Br425      Br  0.67745372  0.22756334  0.20776319    -0.02380
H426        H  0.69596816  0.27643700  0.22906720     0.09780
H427        H  0.80015825  0.23072360  0.28655992     0.07800
Br428      Br  0.81872189  0.27971719  0.30737778    -0.02810
C429        C  0.61290990  0.07056937  0.39597581    -0.09450
C430        C  0.63236068  0.05835982  0.36031547     0.06750
C431        C  0.62375450  0.03446704  0.35164248    -0.03210
C432        C  0.59708767  0.02341704  0.37919426    -0.07660
C433        C  0.57771589  0.03564801  0.41493425     0.05870
C434        C  0.58564918  0.05971677  0.42260880    -0.02690
Br435      Br  0.55948244  0.07963581  0.46641111    -0.02380
H436        H  0.61872105  0.08889243  0.40327360     0.09780
H437        H  0.59118558  0.00508012  0.37198697     0.07800
Br438      Br  0.64450218  0.01603371  0.30043710    -0.02810
C439        C  0.86408138  0.05774944  0.08238910    -0.09450
C440        C  0.87328327  0.06543410  0.12920230     0.06750
C441        C  0.90790377  0.06137356  0.14699644    -0.03210
C442        C  0.93256358  0.04916076  0.11838636    -0.07660
C443        C  0.92347109  0.04155722  0.07142141     0.05870
C444        C  0.88907491  0.04617360  0.05316289    -0.02690
Br445      Br  0.87472486  0.03646652  0.98925570    -0.02380
H446        H  0.83746570  0.06090835  0.06845630     0.09780
H447        H  0.95911909  0.04594776  0.13248125     0.07800
Br448      Br  0.92248546  0.07221667  0.21005934    -0.02810
loop_ 
_geom_bond_atom_site_label_1 
_geom_bond_atom_site_label_2 
_geom_bond_distance 
_geom_bond_site_symmetry_2 
_ccdc_geom_bond_type 
N1            N2   1.323       .  A
N1            C5   1.345       .  A
N1           Cu9   2.072       .  S
N2            C3   1.345       .  A
N2           Cu8   2.074       .  S
C3            C4   1.381       .  A
C3            H6   1.082       .  S
C4            C5   1.380       .  A
C4          C440   1.469       .  S
C5            H7   1.082       .  S
Cu8          N11   2.073       .  S
Cu9          N19   2.072       .  S
Cu10         N12   2.074       .  S
Cu10         N18   2.074       .  S
N11          N12   1.320       .  A
N11          C15   1.345       .  A
N12          C13   1.343       .  A
C13          C14   1.389       .  A
C13          H16   1.082       .  S
C14          C15   1.389       .  A
C14         C430   1.490       .  S
C15          H17   1.080       .  S
N18          N19   1.322       .  A
N18          C22   1.345       .  A
N19          C20   1.345       .  A
C20          C21   1.383       .  A
C20          H23   1.083       .  S
C21          C22   1.384       .  A
C21         C423   1.476       .  S
C22          H24   1.082       .  S
O25         Cu33   2.012   1_545  S
O25          C35   1.278       .  A
O26         Cu33   2.011   1_456  S
O26          C36   1.279       .  A
O27         Cu33   2.003   1_445  S
O27          C37   1.276       .  A
O28         Cu33   2.005   1_556  S
O28          C38   1.276       .  A
O29         Cu34   2.016       .  S
O29          C38   1.278   1_545  A
O30         Cu34   2.019   1_454  S
O30          C37   1.278       .  A
O31         Cu34   2.010   1_455  S
O31          C36   1.277   1_545  A
O32         Cu34   2.009   1_554  S
O32          C35   1.277       .  A
Cu33        Cu34   2.376   1_564  S
C35         C443   1.470       .  S
C36         C413   1.479       .  S
C37         C400   1.468       .  S
C38         C390   1.467       .  S
N39          N40   1.322       .  A
N39          C43   1.343       .  A
N39         Cu47   2.071       .  S
N40          C41   1.346       .  A
N40         Cu46   2.076       .  S
C41          C42   1.385       .  A
C41          H44   1.082       .  S
C42          C43   1.384       .  A
C42         C383   1.480       .  S
C43          H45   1.081       .  S
Cu46         N49   2.076       .  S
Cu47         N57   2.071       .  S
Cu48         N50   2.073       .  S
Cu48         N56   2.072       .  S
N49          N50   1.322       .  A
N49          C53   1.345       .  A
N50          C51   1.345       .  A
C51          C52   1.383       .  A
C51          H54   1.082       .  S
C52          C53   1.384       .  A
C52         C403   1.476       .  S
C53          H55   1.082       .  S
N56          N57   1.322       .  A
N56          C60   1.345       .  A
N57          C58   1.345       .  A
C58          C59   1.381       .  A
C58          H61   1.082       .  S
C59          C60   1.382       .  A
C59         C370   1.471       .  S
C60          H62   1.082       .  S
N63          N64   1.321       .  A
N63          C67   1.344       .  A
N63         Cu71   2.067       .  S
N64          C65   1.345       .  A
N64         Cu70   2.076       .  S
C65          C66   1.386       .  A
C65          H68   1.082       .  S
C66          C67   1.384       .  A
C66         C363   1.480       .  S
C67          H69   1.081       .  S
Cu70         N73   2.076       .  S
Cu71         N81   2.067       .  S
Cu72         N74   2.074       .  S
Cu72         N80   2.073       .  S
N73          N74   1.323       .  A
N73          C77   1.345       .  A
N74          C75   1.345       .  A
C75          C76   1.382       .  A
C75          H78   1.082       .  S
C76          C77   1.383       .  A
C76         C393   1.473       .  S
C77          H79   1.082       .  S
N80          N81   1.321       .  A
N80          C84   1.345       .  A
N81          C82   1.343       .  A
C82          C83   1.383       .  A
C82          H85   1.082       .  S
C83          C84   1.385       .  A
C83         C350   1.478       .  S
C84          H86   1.082       .  S
O87         Cu95   2.004       .  S
O87          C97   1.279       .  A
O88         Cu95   2.001   1_565  S
O88          C98   1.275       .  A
O89         Cu95   2.003       .  S
O89          C99   1.276       .  A
O90         Cu95   2.005   1_565  S
O90         C100   1.277       .  A
O91         Cu96   2.008       .  S
O91         C100   1.277       .  A
O92         Cu96   2.011   1_545  S
O92          C99   1.279       .  A
O93         Cu96   2.014       .  S
O93          C98   1.280       .  A
O94         Cu96   2.012   1_545  S
O94          C97   1.277       .  A
Cu95        Cu96   2.364   1_545  S
C97         C380   1.490       .  S
C98         C360   1.491       .  S
C99         C433   1.488       .  S
C100        C340   1.478       .  S
N101        N102   1.323       .  A
N101        C105   1.345       .  A
N101       Cu109   2.074       .  S
N102        C103   1.345       .  A
N102       Cu108   2.073       .  S
C103        C104   1.382       .  A
C103        H106   1.082       .  S
C104        C105   1.381       .  A
C104        C343   1.471       .  S
C105        H107   1.082       .  S
Cu108       N111   2.073       .  S
Cu109       N119   2.074       .  S
Cu110       N112   2.076       .  S
Cu110       N118   2.076       .  S
N111        N112   1.320       .  A
N111        C115   1.345       .  A
N112        C113   1.343       .  A
C113        C114   1.389       .  A
C113        H116   1.080       .  S
C114        C115   1.389       .  A
C114        C410   1.490       .  S
C115        H117   1.082       .  S
N118        N119   1.321       .  A
N118        C122   1.345       .  A
N119        C120   1.344       .  A
C120        C121   1.388       .  A
C120        H123   1.082       .  S
C121        C122   1.389       .  A
C121        C333   1.489       .  S
C122        H124   1.080       .  S
N125        N126   1.323       .  A
N125        C129   1.344       .  A
N125       Cu133   2.067       .  S
N126        C127   1.346       .  A
N126       Cu132   2.080       .  S
C127        C128   1.383       .  A
C127        H130   1.082       .  S
C128        C129   1.380       .  A
C128        C310   1.473       .  S
C129        H131   1.082       .  S
Cu132       N135   2.079       .  S
Cu133       N143   2.067       .  S
Cu134       N136   2.067       .  S
Cu134       N142   2.067       .  S
N135        N136   1.321       .  A
N135        C139   1.346       .  A
N136        C137   1.342       .  A
C137        C138   1.386       .  A
C137        H140   1.080       .  S
C138        C139   1.389       .  A
C138        C320   1.487       .  S
C139        H141   1.082       .  S
N142        N143   1.320       .  A
N142        C146   1.344       .  A
N143        C144   1.344       .  A
C144        C145   1.385       .  A
C144        H147   1.082       .  S
C145        C146   1.384       .  A
C145        C353   1.478       .  S
C146        H148   1.082       .  S
N149        N150   1.323       .  A
N149        C153   1.345       .  A
N149       Cu157   2.074       .  S
N150        C151   1.345       .  A
N150       Cu156   2.070       .  S
C151        C152   1.380       .  A
C151        H154   1.082       .  S
C152        C153   1.380       .  A
C152        C300   1.467       .  S
C153        H155   1.082       .  S
Cu156       N159   2.070       .  S
Cu157       N167   2.074       .  S
Cu158       N160   2.072       .  S
Cu158       N166   2.072       .  S
N159        N160   1.322       .  A
N159        C163   1.344       .  A
N160        C161   1.344       .  A
C161        C162   1.383       .  A
C161        H164   1.082       .  S
C162        C163   1.383       .  A
C162        C290   1.475       .  S
C163        H165   1.082       .  S
N166        N167   1.322       .  A
N166        C170   1.345       .  A
N167        C168   1.345       .  A
C168        C169   1.383       .  A
C168        H171   1.082       .  S
C169        C170   1.382       .  A
C169        C420   1.475       .  S
C170        H172   1.083       .  S
N173        N174   1.322       .  A
N173        C177   1.344       .  A
N173       Cu181   2.075       .  S
N174        C175   1.345       .  A
N174       Cu180   2.071       .  S
C175        C176   1.384       .  A
C175        H178   1.082       .  S
C176        C177   1.384       .  A
C176        C280   1.477       .  S
C177        H179   1.082       .  S
Cu180       N183   2.070       .  S
Cu181       N191   2.074       .  S
Cu182       N184   2.077       .  S
Cu182       N190   2.077       .  S
N183        N184   1.319       .  A
N183        C187   1.344       .  A
N184        C185   1.344       .  A
C185        C186   1.393       .  A
C185        H188   1.081       .  S
C186        C187   1.391       .  A
C186        C270   1.496       .  S
C187        H189   1.075       .  S
N190        N191   1.320       .  A
N190        C194   1.344       .  A
N191        C192   1.345       .  A
C192        C193   1.390       .  A
C192        H195   1.079       .  S
C193        C194   1.391       .  A
C193        C330   1.494       .  S
C194        H196   1.082       .  S
O197       Cu205   2.017       .  S
O197        C207   1.280   1_554  A
O198       Cu205   2.011   1_455  S
O198        C208   1.277       .  A
O199       Cu205   2.005   1_455  S
O199        C209   1.277   1_554  A
O200       Cu205   2.009       .  S
O200        C210   1.277       .  A
O201       Cu206   2.006       .  S
O201        C210   1.277       .  A
O202       Cu206   2.007   1_456  S
O202        C209   1.279       .  A
O203       Cu206   2.004   1_455  S
O203        C208   1.276       .  A
O204       Cu206   1.997   1_556  S
O204        C207   1.276       .  A
Cu205      Cu206   2.373       .  S
C207        C313   1.481       .  S
C208        C263   1.465       .  S
C209        C273   1.484       .  S
C210        C303   1.469       .  S
O211       Cu219   2.012       .  S
O211        C221   1.278       .  A
O212       Cu219   2.011       .  S
O212        C222   1.277       .  A
O213       Cu219   2.010       .  S
O213        C223   1.277       .  A
O214       Cu219   2.008       .  S
O214        C224   1.276       .  A
O215       Cu220   2.003       .  S
O215        C224   1.278       .  A
O216       Cu220   2.004       .  S
O216        C223   1.279       .  A
O217       Cu220   2.001       .  S
O217        C222   1.275       .  A
O218       Cu220   2.001       .  S
O218        C221   1.276       .  A
Cu219      Cu220   2.369       .  S
C221        C283   1.481       .  S
C222        C293   1.464       .  S
C223        C323   1.489       .  S
C224        C250   1.489       .  S
N225        N226   1.322       .  A
N225        C229   1.344       .  A
N225       Cu233   2.074       .  S
N226        C227   1.345       .  A
N226       Cu232   2.071       .  S
C227        C228   1.382       .  A
C227        H230   1.082       .  S
C228        C229   1.383       .  A
C228        C260   1.474       .  S
C229        H231   1.082       .  S
Cu232       N235   2.071       .  S
Cu233       N243   2.074       .  S
Cu234       N236   2.070       .  S
Cu234       N242   2.070       .  S
N235        N236   1.321       .  A
N235        C239   1.344       .  A
N236        C237   1.344       .  A
C237        C238   1.384       .  A
C237        H240   1.082       .  S
C238        C239   1.385       .  A
C238        C253   1.480       .  S
C239        H241   1.081       .  S
N242        N243   1.322       .  A
N242        C246   1.344       .  A
N243        C244   1.345       .  A
C244        C245   1.382       .  A
C244        H247   1.082       .  S
C245        C246   1.381       .  A
C245        C373   1.472       .  S
C246        H248   1.082       .  S
C249        C250   1.408       .  A
C249        C254   1.397       .  A
C249        H256   1.083       .  S
C250        C251   1.418       .  A
C251        C252   1.399       .  A
C251       Br258   1.923       .  S
C252        C253   1.403       .  A
C252        H257   1.084       .  S
C253        C254   1.410       .  A
C254       Br255   1.921       .  S
C259        C260   1.404       .  A
C259        C264   1.400       .  A
C259        H266   1.084       .  S
C260        C261   1.410       .  A
C261        C262   1.398       .  A
C261       Br268   1.919       .  S
C262        C263   1.399       .  A
C262        H267   1.083       .  S
C263        C264   1.406       .  A
C264       Br265   1.919       .  S
C269        C270   1.409       .  A
C269        C274   1.398       .  A
C269        H276   1.081       .  S
C270        C271   1.420       .  A
C271        C272   1.399       .  A
C271       Br278   1.920       .  S
C272        C273   1.403       .  A
C272        H277   1.083       .  S
C273        C274   1.411       .  A
C274       Br275   1.922       .  S
C279        C280   1.402       .  A
C279        C284   1.398       .  A
C279        H286   1.084       .  S
C280        C281   1.410       .  A
C281        C282   1.400       .  A
C281       Br288   1.920       .  S
C282        C283   1.405       .  A
C282        H287   1.084       .  S
C283        C284   1.414       .  A
C284       Br285   1.922       .  S
C289        C290   1.404       .  A
C289        C294   1.398       .  A
C289        H296   1.083       .  S
C290        C291   1.411       .  A
C291        C292   1.399       .  A
C291       Br298   1.919       .  S
C292        C293   1.400       .  A
C292        H297   1.083       .  S
C293        C294   1.405       .  A
C294       Br295   1.919       .  S
C299        C300   1.401       .  A
C299        C304   1.399       .  A
C299        H306   1.084       .  S
C300        C301   1.406       .  A
C301        C302   1.398       .  A
C301       Br308   1.918       .  S
C302        C303   1.403       .  A
C302        H307   1.084       .  S
C303        C304   1.408       .  A
C304       Br305   1.918       .  S
C309        C310   1.400       .  A
C309        C314   1.398       .  A
C309        H316   1.083       .  S
C310        C311   1.408       .  A
C311        C312   1.399       .  A
C311       Br318   1.919       .  S
C312        C313   1.405       .  A
C312        H317   1.083   1_556  S
C313        C314   1.415       .  A
C314       Br315   1.922       .  S
C319        C320   1.405       .  A
C319        C324   1.401       .  A
C319        H326   1.083       .  S
C320        C321   1.414       .  A
C321        C322   1.397       .  A
C321       Br328   1.921       .  S
C322        C323   1.406       .  A
C322        H327   1.083       .  S
C323        C324   1.416       .  A
C324       Br325   1.922       .  S
C329        C330   1.407       .  A
C329        C334   1.400       .  A
C329        H336   1.083       .  S
C330        C331   1.417       .  A
C331        C332   1.400       .  A
C331       Br338   1.920       .  S
C332        C333   1.405       .  A
C332        H337   1.084       .  S
C333        C334   1.413       .  A
C334       Br335   1.920       .  S
C339        C340   1.405       .  A
C339        C344   1.398       .  A
C339        H346   1.084       .  S
C340        C341   1.413       .  A
C341        C342   1.399       .  A
C341       Br348   1.921       .  S
C342        C343   1.401       .  A
C342        H347   1.084       .  S
C343        C344   1.407       .  A
C344       Br345   1.919       .  S
C349        C350   1.404       .  A
C349        C354   1.399       .  A
C349        H356   1.084       .  S
C350        C351   1.411       .  A
C351        C352   1.397       .  A
C351       Br358   1.920       .  S
C352        C353   1.403       .  A
C352        H357   1.084       .  S
C353        C354   1.411       .  A
C354       Br355   1.920       .  S
C359        C360   1.408       .  A
C359        C364   1.399       .  A
C359        H366   1.083       .  S
C360        C361   1.419       .  A
C361        C362   1.399       .  A
C361       Br368   1.923   1_565  S
C362        C363   1.401       .  A
C362        H367   1.083       .  S
C363        C364   1.410       .  A
C364       Br365   1.920       .  S
C369        C370   1.402       .  A
C369        C374   1.399       .  A
C369        H376   1.084       .  S
C370        C371   1.408       .  A
C371        C372   1.399       .  A
C371       Br378   1.919       .  S
C372        C373   1.402       .  A
C372        H377   1.084       .  S
C373        C374   1.409       .  A
C374       Br375   1.919       .  S
C379        C380   1.408       .  A
C379        C384   1.396       .  A
C379        H386   1.083       .  S
C380        C381   1.418       .  A
C381        C382   1.402       .  A
C381       Br388   1.922       .  S
C382        C383   1.403       .  A
C382        H387   1.083       .  S
C383        C384   1.409       .  A
C384       Br385   1.921       .  S
C389        C390   1.400       .  A
C389        C394   1.399       .  A
C389        H396   1.081       .  S
C390        C391   1.406       .  A
C391        C392   1.400       .  A
C391       Br398   1.917       .  S
C392        C393   1.403       .  A
C392        H397   1.083       .  S
C393        C394   1.409       .  A
C394       Br395   1.919       .  S
C399        C400   1.401       .  A
C399        C404   1.400       .  A
C399        H406   1.084       .  S
C400        C401   1.405       .  A
C401        C402   1.398       .  A
C401       Br408   1.916       .  S
C402        C403   1.403       .  A
C402        H407   1.084       .  S
C403        C404   1.411       .  A
C404       Br405   1.919       .  S
C409        C410   1.408       .  A
C409        C414   1.400       .  A
C409        H416   1.083       .  S
C410        C411   1.415       .  A
C411        C412   1.398       .  A
C411       Br418   1.920       .  S
C412        C413   1.402       .  A
C412        H417   1.084       .  S
C413        C414   1.410       .  A
C414       Br415   1.920   1_565  S
C419        C420   1.402       .  A
C419        C424   1.399       .  A
C419        H426   1.084       .  S
C420        C421   1.409       .  A
C421        C422   1.399       .  A
C421       Br428   1.919       .  S
C422        C423   1.403       .  A
C422        H427   1.084       .  S
C423        C424   1.410       .  A
C424       Br425   1.919       .  S
C429        C430   1.406       .  A
C429        C434   1.398       .  A
C429        H436   1.082       .  S
C430        C431   1.415       .  A
C431        C432   1.400       .  A
C431       Br438   1.920       .  S
C432        C433   1.406       .  A
C432        H437   1.083       .  S
C433        C434   1.415       .  A
C434       Br435   1.923       .  S
C439        C440   1.401       .  A
C439        C444   1.399       .  A
C439        H446   1.084       .  S
C440        C441   1.406       .  A
C441        C442   1.399       .  A
C441       Br448   1.918       .  S
C442        C443   1.403       .  A
C442        H447   1.084       .  S
C443        C444   1.409       .  A
C444       Br445   1.917   1_554  S
