geometry optimzed in LAMMPS
_audit_creation_date              2020-11-30 
_audit_creation_method            'lammps2cif' 
_symmetry_space_group_name_H-M    'P1' 
_symmetry_Int_Tables_number       1 
_symmetry_cell_setting            triclinic 
loop_ 
_symmetry_equiv_pos_as_xyz 
  x,y,z 
_cell_length_a                    33.01807477 
_cell_length_b                    33.0192537709229 
_cell_length_c                    33.009325879830506 
_cell_angle_alpha                 89.97726666722025 
_cell_angle_beta                  90.03621476419384 
_cell_angle_gamma                 90.01532374006587 
loop_ 
_atom_site_label 
_atom_site_type_symbol 
_atom_site_fract_x 
_atom_site_fract_y 
_atom_site_fract_z 
_atom_site_charge 
N1          N  0.56109092  0.09623097  0.50804172    -0.36900
N2          N  0.49225759  0.09704166  0.56272210    -0.57500
N3          N  0.43645228  0.09634082  0.49482875    -0.36900
N4          N  0.50531292  0.09601152  0.44009806    -0.57500
C5          C  0.57933751  0.08532231  0.54308972     0.26600
C6          C  0.58655034  0.08597419  0.47762893     0.26600
C7          C  0.41158524  0.08533898  0.52543903     0.26600
C8          C  0.41860467  0.08397973  0.46010440     0.26600
C9          C  0.52217575  0.09861924  0.59047548     0.35300
C10         C  0.45724104  0.10071877  0.58333130     0.35300
C11         C  0.54032445  0.09880310  0.41927428     0.35300
C12         C  0.47527396  0.09762623  0.41243452     0.35300
C13         C  0.61760691  0.06997306  0.53485815    -0.22200
C14         C  0.62215628  0.07044971  0.49363956    -0.22200
C15         C  0.37695192  0.06730252  0.50992087    -0.22200
C16         C  0.38133557  0.06648735  0.46873528    -0.22200
C17         C  0.50627954  0.10437047  0.62886071    -0.23300
C18         C  0.46504528  0.10583975  0.62433951    -0.23300
C19         C  0.53232068  0.10314833  0.37818635    -0.23300
C20         C  0.49107060  0.10242361  0.37390295    -0.23300
C21         C  0.56269812  0.08864189  0.58241197    -0.18600
C22         C  0.57869577  0.08983350  0.43575434    -0.18600
C23         C  0.43467389  0.08813512  0.42071375    -0.18600
C24         C  0.41909965  0.09088372  0.56707688    -0.18600
H25         H  0.63995998  0.05907044  0.55622127     0.14300
H26         H  0.64859869  0.05998483  0.47736150     0.14300
H27         H  0.35127055  0.05548367  0.52651678     0.14300
H28         H  0.35956824  0.05392775  0.44769085     0.14300
H29         H  0.52256131  0.10523308  0.65732275     0.12600
H30         H  0.44327864  0.10770477  0.64876752     0.12600
H31         H  0.55379641  0.10429949  0.35349151     0.12600
H32         H  0.47468513  0.10299299  0.34549177     0.12600
H33         H  0.53392370  0.11180318  0.50514044     0.25800
H34         H  0.46269672  0.11357601  0.49732014     0.25800
N35         N  0.10153534  0.50471576  0.56124061    -0.36900
N36         N  0.09943679  0.43779366  0.50445837    -0.57500
N37         N  0.10020934  0.49289447  0.43602587    -0.36900
N38         N  0.10386753  0.55950333  0.49273581    -0.57500
C39         C  0.08911510  0.47435149  0.58575840     0.26600
C40         C  0.09013837  0.53976755  0.57906160     0.26600
C41         C  0.08720727  0.45854807  0.41801695     0.26600
C42         C  0.08851461  0.52400325  0.41208859     0.26600
C43         C  0.10239484  0.41667210  0.53931410     0.35300
C44         C  0.10143133  0.41045101  0.47417545     0.35300
C45         C  0.10766444  0.58663468  0.52294316     0.35300
C46         C  0.10785363  0.58034772  0.45790942     0.35300
C47         C  0.07166452  0.49028118  0.62045490    -0.22200
C48         C  0.07232738  0.53155026  0.61626288    -0.22200
C49         C  0.06877185  0.46783992  0.38134256    -0.22200
C50         C  0.06948743  0.50917509  0.37767944    -0.22200
C51         C  0.10739161  0.37577642  0.53107813    -0.23300
C52         C  0.10679088  0.37184871  0.48972323    -0.23300
C53         C  0.11579812  0.62474465  0.50743474    -0.23300
C54         C  0.11595758  0.62078671  0.46611649    -0.23300
C55         C  0.09274660  0.43262278  0.57767317    -0.18600
C56         C  0.09521292  0.57901048  0.56280143    -0.18600
C57         C  0.09478977  0.56541434  0.42023121    -0.18600
C58         C  0.09143601  0.41901600  0.43368387    -0.18600
H59         H  0.05908618  0.47390512  0.64592246     0.14300
H60         H  0.06053623  0.55294902  0.63808744     0.14300
H61         H  0.05554760  0.44711726  0.35965269     0.14300
H62         H  0.05710717  0.52631285  0.35260652     0.14300
H63         H  0.10881365  0.35108152  0.55260071     0.12600
H64         H  0.10774075  0.34361247  0.47309629     0.12600
H65         H  0.11838711  0.65289740  0.52402880     0.12600
H66         H  0.11861931  0.64548308  0.44474619     0.12600
H67         H  0.11867755  0.50170529  0.53499698     0.25800
H68         H  0.11819349  0.49475782  0.46183490     0.25800
N69         N  0.50555653  0.89686633  0.56333357    -0.36900
N70         N  0.43896488  0.89945523  0.50530973    -0.57500
N71         N  0.49515096  0.89774183  0.43802844    -0.36900
N72         N  0.56162728  0.89567088  0.49589179    -0.57500
C73         C  0.47457161  0.90692458  0.58805076     0.26600
C74         C  0.54005347  0.90815288  0.58235394     0.26600
C75         C  0.46113932  0.91016971  0.41879991     0.26600
C76         C  0.52671219  0.90744635  0.41382030     0.26600
C77         C  0.41743200  0.89585701  0.53984059     0.35300
C78         C  0.41189356  0.89865319  0.47462677     0.35300
C79         C  0.58850971  0.89375884  0.52656721     0.35300
C80         C  0.58303058  0.89131145  0.46146360     0.35300
C81         C  0.48959347  0.92248026  0.62409559    -0.22200
C82         C  0.53086876  0.92324914  0.62052396    -0.22200
C83         C  0.47115421  0.92603421  0.38117022    -0.22200
C84         C  0.51246658  0.92432459  0.37804423    -0.22200
C85         C  0.37653414  0.89193862  0.53096435    -0.23300
C86         C  0.37303508  0.89382932  0.48960069    -0.23300
C87         C  0.62712155  0.88683584  0.51179081    -0.23300
C88         C  0.62365599  0.88510746  0.47044899    -0.23300
C89         C  0.43302566  0.90346721  0.57886698    -0.18600
C90         C  0.57966472  0.90535403  0.56646013    -0.18600
C91         C  0.56810310  0.90185512  0.42293847    -0.18600
C92         C  0.42122670  0.90772866  0.43404006    -0.18600
H93         H  0.47259499  0.93297103  0.65008257     0.14300
H94         H  0.55159772  0.93409875  0.64348395     0.14300
H95         H  0.45092227  0.93815796  0.35839239     0.14300
H96         H  0.52999509  0.93479721  0.35239681     0.14300
H97         H  0.35162225  0.89008998  0.55218717     0.12600
H98         H  0.34499420  0.89346521  0.47259838     0.12600
H99         H  0.65510958  0.88552196  0.52883560     0.12600
H100        H  0.64863411  0.88248154  0.44941309     0.12600
H101        H  0.50318807  0.88148126  0.53600194     0.25800
H102        H  0.49665453  0.88148003  0.46493328     0.25800
N103        N  0.89782702  0.49974514  0.43775622    -0.36900
N104        N  0.89834538  0.55606738  0.50480135    -0.57500
N105        N  0.89968303  0.49078498  0.56314625    -0.36900
N106        N  0.89696239  0.43431309  0.49620832    -0.57500
C107        C  0.91063541  0.53387946  0.41911572     0.26600
C108        C  0.90994647  0.46832800  0.41452310     0.26600
C109        C  0.91268379  0.52204932  0.58614232     0.26600
C110        C  0.91259237  0.45651566  0.58138087     0.26600
C111        C  0.89483729  0.58259344  0.47395324     0.35300
C112        C  0.89482460  0.57779615  0.53916588     0.35300
C113        C  0.89293081  0.41252995  0.46195947     0.35300
C114        C  0.89440589  0.40779237  0.52711811     0.35300
C115        C  0.92938032  0.52409669  0.38280093    -0.22200
C116        C  0.92895530  0.48271113  0.37990965    -0.22200
C117        C  0.93261582  0.50751107  0.62014788    -0.22200
C118        C  0.93248909  0.46612031  0.61721541    -0.22200
C119        C  0.88768351  0.62121391  0.48863962    -0.23300
C120        C  0.88763091  0.61818081  0.53008248    -0.23300
C121        C  0.88627058  0.37206464  0.47121792    -0.23300
C122        C  0.88721834  0.36907656  0.51263417    -0.23300
C123        C  0.90587241  0.57365287  0.43389725    -0.18600
C124        C  0.90438383  0.42701262  0.42359870    -0.18600
C125        C  0.90667350  0.41679927  0.56677459    -0.18600
C126        C  0.90682145  0.56335473  0.57740795    -0.18600
H127        H  0.94258995  0.54454973  0.36084837     0.14300
H128        H  0.94172815  0.46525303  0.35529075     0.14300
H129        H  0.94622129  0.52487726  0.64440834     0.14300
H130        H  0.94594765  0.44558920  0.63893996     0.14300
H131        H  0.88541142  0.64899874  0.47137197     0.12600
H132        H  0.88544910  0.64326147  0.55106580     0.12600
H133        H  0.88399561  0.34689300  0.45035379     0.12600
H134        H  0.88572986  0.34125546  0.52993501     0.12600
H135        H  0.87980158  0.49808275  0.46355539     0.25800
H136        H  0.88083691  0.49264644  0.53793442     0.25800
N137        N  0.56245099  0.49328586  0.09969019    -0.36900
N138        N  0.49557484  0.43664551  0.10078389    -0.57500
N139        N  0.43736232  0.50295391  0.10098177    -0.36900
N140        N  0.50424489  0.55949913  0.10053868    -0.57500
C141        C  0.58183257  0.45897428  0.08855281     0.26600
C142        C  0.58657987  0.52458602  0.08901262     0.26600
C143        C  0.41359241  0.47165523  0.08948871     0.26600
C144        C  0.41827503  0.53725933  0.08918114     0.26600
C145        C  0.52634322  0.40983095  0.10222640     0.35300
C146        C  0.46117001  0.41496265  0.10418602     0.35300
C147        C  0.53872586  0.58115883  0.10342528     0.35300
C148        C  0.47351071  0.58625711  0.10333408     0.35300
C149        C  0.61961506  0.46859468  0.07280134    -0.22200
C150        C  0.62257460  0.50993895  0.07305032    -0.22200
C151        C  0.37830515  0.48631732  0.07193480    -0.22200
C152        C  0.38128156  0.52763469  0.07169121    -0.22200
C153        C  0.51159750  0.37095451  0.10771266    -0.23300
C154        C  0.47023497  0.37418262  0.10904737    -0.23300
C155        C  0.52979692  0.62181433  0.10923841    -0.23300
C156        C  0.48838810  0.62501576  0.10920276    -0.23300
C157        C  0.56651952  0.41915371  0.09184755    -0.18600
C158        C  0.57722614  0.56607545  0.09304674    -0.18600
C159        C  0.43314331  0.57711835  0.09351195    -0.18600
C160        C  0.42258000  0.43015338  0.09427315    -0.18600
H161        H  0.64266122  0.44808081  0.06178060     0.14300
H162        H  0.64827551  0.52719495  0.06226420     0.14300
H163        H  0.35305556  0.46911846  0.06004416     0.14300
H164        H  0.35881952  0.54814724  0.05947399     0.14300
H165        H  0.52871570  0.34300369  0.10834459     0.12600
H166        H  0.44928360  0.34903389  0.11064378     0.12600
H167        H  0.55083740  0.64688938  0.11089996     0.12600
H168        H  0.47124991  0.65290739  0.11088895     0.12600
H169        H  0.53538867  0.49524001  0.11555636     0.25800
H170        H  0.46378323  0.50102861  0.11801682     0.25800
N171        N  0.49728714  0.56084390  0.89620442    -0.36900
N172        N  0.56304996  0.50214550  0.89515621    -0.57500
N173        N  0.50605267  0.43564840  0.89785078    -0.36900
N174        N  0.44031435  0.49420502  0.89783275    -0.57500
C175        C  0.52900203  0.58482150  0.90592997     0.26600
C176        C  0.46341734  0.58056273  0.90809827     0.26600
C177        C  0.54032978  0.41654852  0.90963511     0.26600
C178        C  0.47472836  0.41184097  0.90915744     0.26600
C179        C  0.58495743  0.53630306  0.89146135     0.35300
C180        C  0.58963700  0.47125464  0.89389958     0.35300
C181        C  0.41373150  0.52516505  0.89617666     0.35300
C182        C  0.41831912  0.45992535  0.89517844     0.35300
C183        C  0.51505057  0.62113243  0.92175261    -0.22200
C184        C  0.47370661  0.61852858  0.92297730    -0.22200
C185        C  0.53065330  0.37927795  0.92653305    -0.22200
C186        C  0.48929928  0.37632889  0.92623878    -0.22200
C187        C  0.62561395  0.52700519  0.88617342    -0.23300
C188        C  0.62857545  0.48564807  0.88778747    -0.23300
C189        C  0.37468006  0.51058143  0.89135432    -0.23300
C190        C  0.37758851  0.46918940  0.89058205    -0.23300
C191        C  0.57029343  0.57485200  0.90180248    -0.18600
C192        C  0.42345449  0.56533449  0.90632034    -0.18600
C193        C  0.43328198  0.42123451  0.90499478    -0.18600
C194        C  0.58017922  0.43161746  0.90582764    -0.18600
H195        H  0.53281249  0.64673936  0.93194993     0.14300
H196        H  0.45367380  0.64193063  0.93411291     0.14300
H197        H  0.55114655  0.35659622  0.93836509     0.14300
H198        H  0.47196325  0.35107286  0.93791935     0.14300
H199        H  0.65082325  0.54789312  0.88436598     0.12600
H200        H  0.65642407  0.46835864  0.88729133     0.12600
H201        H  0.34680993  0.52781456  0.89078214     0.12600
H202        H  0.35233279  0.44831685  0.88947282     0.12600
H203        H  0.49867912  0.53349092  0.88077757     0.25800
H204        H  0.50410294  0.46222913  0.88113354     0.25800
N205        N  0.00603410  0.59438931  0.06062834    -0.36900
N206        N  0.93723209  0.59614349  0.00565923    -0.57500
N207        N  0.99078619  0.59658206  0.93609834    -0.36900
N208        N  0.05981662  0.59502311  0.99135482    -0.57500
C209        C  0.97582933  0.58338998  0.08601573     0.26600
C210        C  0.04118046  0.58343469  0.07859454     0.26600
C211        C  0.95554866  0.58534726  0.91844369     0.26600
C212        C  0.02079432  0.58572825  0.91047283     0.26600
C213        C  0.91701527  0.59808190  0.04102534     0.35300
C214        C  0.90903362  0.59833351  0.97620884     0.35300
C215        C  0.08811281  0.59603828  0.02090315     0.35300
C216        C  0.07993139  0.59791675  0.95591780     0.35300
C217        C  0.99197901  0.56687583  0.12109260    -0.22200
C218        C  0.03315207  0.56697910  0.11648856    -0.22200
C219        C  0.96328220  0.56902773  0.88046065    -0.22200
C220        C  0.00439559  0.56923543  0.87547219    -0.22200
C221        C  0.87580852  0.60272287  0.03390290    -0.23300
C222        C  0.87078655  0.60287094  0.99275913    -0.23300
C223        C  0.12637121  0.60036564  0.00429978    -0.23300
C224        C  0.12121368  0.60160710  0.96309015    -0.23300
C225        C  0.93400979  0.58781391  0.07876453    -0.18600
C226        C  0.08040607  0.58751026  0.06195739    -0.18600
C227        C  0.06266709  0.58961682  0.91770837    -0.18600
C228        C  0.91649724  0.58897497  0.93549901    -0.18600
H229        H  0.97580044  0.55550545  0.14724258     0.14300
H230        H  0.05459418  0.55555529  0.13849423     0.14300
H231        H  0.94168760  0.55749192  0.85866332     0.14300
H232        H  0.02037992  0.55780397  0.84923971     0.14300
H233        H  0.85153578  0.60324601  0.05589495     0.12600
H234        H  0.84207897  0.60362116  0.97691163     0.12600
H235        H  0.15510001  0.60058397  0.02011768     0.12600
H236        H  0.14532130  0.60273415  0.94091579     0.12600
H237        H  0.00296240  0.61072080  0.03390618     0.25800
H238        H  0.99412168  0.61265965  0.96295359     0.25800
N239        N  0.59997476  0.99358841  0.06279959    -0.36900
N240        N  0.60092737  0.93785152  0.99509429    -0.57500
N241        N  0.60045764  0.00429813  0.93755677    -0.36900
N242        N  0.60121102  0.05988381  0.00536551    -0.57500
C243        C  0.58776249  0.95909282  0.08116078     0.26600
C244        C  0.58764871  0.02464863  0.08645344     0.26600
C245        C  0.58827602  0.97334988  0.91367162     0.26600
C246        C  0.58800012  0.03886314  0.91944703     0.26600
C247        C  0.60338571  0.91079438  0.02563483     0.35300
C248        C  0.60406212  0.91648442  0.96042871     0.35300
C249        C  0.60503837  0.08112010  0.03998352     0.35300
C250        C  0.60456594  0.08680040  0.97487258     0.35300
C251        C  0.56906118  0.96833352  0.11767394    -0.22200
C252        C  0.56893125  0.00970411  0.12096475    -0.22200
C253        C  0.56949025  0.98846483  0.87923890    -0.22200
C254        C  0.56930252  0.02980637  0.88287940    -0.22200
C255        C  0.60930020  0.87215366  0.01042659    -0.23300
C256        C  0.60974180  0.87574192  0.96904646    -0.23300
C257        C  0.61233653  0.12162421  0.03139127    -0.23300
C258        C  0.61202677  0.12520297  0.99000148    -0.23300
C259        C  0.59293399  0.91945961  0.06598064    -0.18600
C260        C  0.59318837  0.06612219  0.07804016    -0.18600
C261        C  0.59313196  0.07841369  0.93482068    -0.18600
C262        C  0.59342663  0.93180527  0.92205596    -0.18600
H263        H  0.55628393  0.94752984  0.13955104     0.14300
H264        H  0.55616494  0.02677738  0.14585703     0.14300
H265        H  0.55666000  0.97149582  0.85428670     0.14300
H266        H  0.55632872  0.05071192  0.86120405     0.14300
H267        H  0.61055785  0.84405539  0.02728852     0.12600
H268        H  0.61128828  0.85086071  0.94776842     0.12600
H269        H  0.61478487  0.14646479  0.05262297     0.12600
H270        H  0.61429797  0.15320610  0.97308681     0.12600
H271        H  0.61793028  0.99569847  0.03699556     0.25800
H272        H  0.61834310  0.00204916  0.96342337     0.25800
N273        N  0.99268471  0.40014334  0.06229257    -0.36900
N274        N  0.06025240  0.39973549  0.00648236    -0.57500
N275        N  0.00596127  0.40057944  0.93757122    -0.36900
N276        N  0.93835229  0.39971197  0.99334572    -0.57500
C277        C  0.02308349  0.41225904  0.08692806     0.26600
C278        C  0.95768047  0.41171850  0.08001447     0.26600
C279        C  0.04093488  0.41246691  0.91992757     0.26600
C280        C  0.97550034  0.41234125  0.91282055     0.26600
C281        C  0.08073548  0.39579373  0.04158504     0.35300
C282        C  0.08777800  0.39627030  0.97654240     0.35300
C283        C  0.91084484  0.39594991  0.02329800     0.35300
C284        C  0.91784757  0.39585198  0.95821902     0.35300
C285        C  0.00719200  0.43024322  0.12139236    -0.22200
C286        C  0.96591563  0.42986240  0.11707019    -0.22200
C287        C  0.03259400  0.43031307  0.88272886    -0.22200
C288        C  0.99132502  0.43031115  0.87831469    -0.22200
C289        C  0.12142290  0.38857691  0.03380363    -0.23300
C290        C  0.12584247  0.38886176  0.99250625    -0.23300
C291        C  0.87278726  0.38857187  0.00731076    -0.23300
C292        C  0.87718067  0.38853829  0.96600010    -0.23300
C293        C  0.06476068  0.40691486  0.07953239    -0.18600
C294        C  0.91845810  0.40613197  0.06389508    -0.18600
C295        C  0.93381882  0.40676989  0.92017097    -0.18600
C296        C  0.08021258  0.40727154  0.93617280    -0.18600
H297        H  0.02356190  0.44259053  0.14698182     0.14300
H298        H  0.94452075  0.44198355  0.13871861     0.14300
H299        H  0.05387477  0.44234805  0.86092149     0.14300
H300        H  0.97491195  0.44237924  0.85261447     0.14300
H301        H  0.14588545  0.38593582  0.05544516     0.12600
H302        H  0.15417229  0.38642922  0.97620117     0.12600
H303        H  0.84449538  0.38584624  0.02364044     0.12600
H304        H  0.85274267  0.38585566  0.94433156     0.12600
H305        H  0.99550243  0.38252985  0.03632395     0.25800
H306        H  0.00319316  0.38301187  0.96358969     0.25800
N307        N  0.39928897  0.00289272  0.06326026    -0.36900
N308        N  0.39701908  0.93754098  0.00447979    -0.57500
N309        N  0.39814974  0.99449105  0.93787397    -0.36900
N310        N  0.39839707  0.05998062  0.99676873    -0.57500
C311        C  0.41186244  0.97138162  0.08622857     0.26600
C312        C  0.41134730  0.03705583  0.08234210     0.26600
C313        C  0.40959371  0.96014241  0.91869712     0.26600
C314        C  0.41027974  0.02583733  0.91445132     0.26600
C315        C  0.39433604  0.91558828  0.03879054     0.35300
C316        C  0.39360968  0.91113072  0.97352623     0.35300
C317        C  0.39585763  0.08647518  0.02773948     0.35300
C318        C  0.39581660  0.08203729  0.96250750     0.35300
C319        C  0.43056236  0.98570155  0.12103379    -0.22200
C320        C  0.43016757  0.02713083  0.11863786    -0.22200
C321        C  0.42730199  0.96984540  0.88180492    -0.22200
C322        C  0.42782024  0.01126946  0.87919100    -0.22200
C323        C  0.38770063  0.87511457  0.02955311    -0.23300
C324        C  0.38727028  0.87231490  0.98814634    -0.23300
C325        C  0.39041256  0.12546903  0.01318673    -0.23300
C326        C  0.39043110  0.12267102  0.97176065    -0.23300
C327        C  0.40652361  0.93002745  0.07701294    -0.18600
C328        C  0.40612474  0.07698152  0.06792359    -0.18600
C329        C  0.40621430  0.06727663  0.92392121    -0.18600
C330        C  0.40470504  0.92024750  0.93348911    -0.18600
H331        H  0.44349394  0.96818295  0.14555494     0.14300
H332        H  0.44289556  0.04752171  0.14093043     0.14300
H333        H  0.43912898  0.94932162  0.85917075     0.14300
H334        H  0.44022906  0.02865273  0.85431014     0.14300
H335        H  0.38627804  0.84975806  0.05026559     0.12600
H336        H  0.38544248  0.84451966  0.97086626     0.12600
H337        H  0.38922969  0.15325980  0.03053740     0.12600
H338        H  0.38925602  0.14793114  0.95087904     0.12600
H339        H  0.38130961  0.00126064  0.03743326     0.25800
H340        H  0.38110226  0.99643609  0.96426844     0.25800
N341        N  0.99345259  0.06017109  0.59799024    -0.36900
N342        N  0.94052503  0.99167058  0.60120777    -0.57500
N343        N  0.00864602  0.93601079  0.59989519    -0.36900
N344        N  0.06179972  0.00491691  0.60095629    -0.57500
C345        C  0.95845354  0.07637751  0.58421415     0.26600
C346        C  0.02376970  0.08351140  0.58361438     0.26600
C347        C  0.97809805  0.91192770  0.58708117     0.26600
C348        C  0.04355080  0.91905589  0.58679352     0.26600
C349        C  0.91275720  0.02131871  0.60537360     0.35300
C350        C  0.92081122  0.95638702  0.60653648     0.35300
C351        C  0.08170809  0.04036392  0.60412895     0.35300
C352        C  0.08991249  0.97547253  0.60399966     0.35300
C353        C  0.96664084  0.11088052  0.56163092    -0.22200
C354        C  0.00791672  0.11532471  0.56117375    -0.22200
C355        C  0.99377191  0.87852738  0.56705844    -0.22200
C356        C  0.03507366  0.88292551  0.56699460    -0.22200
C357        C  0.87537711  0.00503998  0.61505027    -0.23300
C358        C  0.88045219  0.96374721  0.61577847    -0.23300
C359        C  0.12263103  0.03336568  0.61093715    -0.23300
C360        C  0.12782751  0.99212853  0.61072686    -0.23300
C361        C  0.91936649  0.06124070  0.59238276    -0.18600
C362        C  0.06526299  0.07752467  0.59126988    -0.18600
C363        C  0.08281702  0.93521183  0.59235804    -0.18600
C364        C  0.93649761  0.91890628  0.59368146    -0.18600
H365        H  0.94527084  0.13081381  0.54680591     0.14300
H366        H  0.02431075  0.13927985  0.54593565     0.14300
H367        H  0.97722653  0.85359645  0.55366325     0.14300
H368        H  0.05625890  0.86192121  0.55348379     0.14300
H369        H  0.84695608  0.02103280  0.61833885     0.12600
H370        H  0.85651208  0.94172048  0.61969536     0.12600
H371        H  0.14671785  0.05554775  0.61247551     0.12600
H372        H  0.15653709  0.97637557  0.61227754     0.12600
H373        H  0.99639298  0.03659301  0.61875907     0.25800
H374        H  0.00588479  0.96110305  0.61877063     0.25800
N375        N  0.00498080  0.06104182  0.40129332    -0.36900
N376        N  0.93919539  0.00275913  0.39967870    -0.57500
N377        N  0.99538571  0.93610777  0.39996136    -0.36900
N378        N  0.06097001  0.99447211  0.39806735    -0.57500
C379        C  0.97385864  0.08368901  0.41511747     0.26600
C380        C  0.03945350  0.07912619  0.41403446     0.26600
C381        C  0.96125619  0.91759608  0.41293373     0.26600
C382        C  0.02687289  0.91340556  0.41295812     0.26600
C383        C  0.91758166  0.03725292  0.39689920     0.35300
C384        C  0.91248809  0.97203458  0.39624628     0.35300
C385        C  0.08747012  0.02526344  0.39410272     0.35300
C386        C  0.08233454  0.96007159  0.39339178     0.35300
C387        C  0.98868020  0.11721588  0.43566404    -0.22200
C388        C  0.03010081  0.11437720  0.43493142    -0.22200
C389        C  0.97117292  0.88198890  0.43300517    -0.22200
C390        C  0.01259250  0.87942106  0.43312253    -0.22200
C391        C  0.87700361  0.02835507  0.39031146    -0.23300
C392        C  0.87381090  0.98694142  0.38988412    -0.23300
C393        C  0.12569787  0.01056607  0.38516807    -0.23300
C394        C  0.12247584  0.96911975  0.38473082    -0.23300
C395        C  0.93246589  0.07534489  0.40897695    -0.18600
C396        C  0.07910889  0.06490572  0.40686252    -0.18600
C397        C  0.06811318  0.92201734  0.40623532    -0.18600
C398        C  0.92140686  0.93189733  0.40707190    -0.18600
H399        H  0.97150423  0.14116707  0.44998556     0.14300
H400        H  0.05083094  0.13578482  0.44858020     0.14300
H401        H  0.95082502  0.86019169  0.44660169     0.14300
H402        H  0.03010580  0.85525308  0.44668335     0.14300
H403        H  0.85187229  0.04933183  0.38891225     0.12600
H404        H  0.84589923  0.96983128  0.38803603     0.12600
H405        H  0.15347011  0.02774997  0.38225617     0.12600
H406        H  0.14745593  0.94818348  0.38147315     0.12600
H407        H  0.00281293  0.03634653  0.38179785     0.25800
H408        H  0.99702126  0.96122350  0.38094301     0.25800
C409        C  0.65615044  0.90893329  0.64645759     0.79900
N410        N  0.63439901  0.89519141  0.61459751    -0.78400
C411        C  0.61289301  0.92093516  0.59157882     0.82300
N412        N  0.61427803  0.96097384  0.59957412    -0.78400
C413        C  0.63474121  0.97606612  0.63191031     0.82400
N414        N  0.65571421  0.94961404  0.65632310    -0.80100
C415        C  0.64656920  0.08749684  0.65466073     0.79900
N416        N  0.61493550  0.10129326  0.63261022    -0.78400
C417        C  0.58808933  0.07525840  0.61640223     0.82300
N418        N  0.59317061  0.03508899  0.62204607    -0.78400
C419        C  0.62630748  0.01977838  0.64104933     0.82400
N420        N  0.65339275  0.04636450  0.65816503    -0.80100
C421        C  0.91188163  0.64537791  0.65295479     0.79900
N422        N  0.89765012  0.61414882  0.63051408    -0.78400
C423        C  0.92267845  0.59309971  0.60630091     0.82300
N424        N  0.96233771  0.60240926  0.60521841    -0.78400
C425        C  0.97830145  0.63269967  0.62791630     0.82400
N426        N  0.95264631  0.65531231  0.65178850    -0.80100
C427        C  0.09004796  0.65706024  0.64125732     0.79900
N428        N  0.04873880  0.65918499  0.64795679    -0.78400
C429        C  0.02302752  0.63910857  0.62201356     0.82300
N430        N  0.03940822  0.61723939  0.59125272    -0.78400
C431        C  0.07977340  0.61321006  0.58658598     0.82400
N432        N  0.10490069  0.63361377  0.61118088    -0.80100
C433        C  0.64900633  0.65327028  0.90866599     0.79900
N434        N  0.62045456  0.62825467  0.89345995    -0.78400
C435        C  0.59973158  0.60357785  0.91807710     0.82300
N436        N  0.60662458  0.60445370  0.95822415    -0.78400
C437        C  0.63410376  0.62990516  0.97514063     0.82400
N438        N  0.65639466  0.65458045  0.94997924    -0.80100
C439        C  0.65422637  0.64685427  0.08772572     0.79900
N440        N  0.65840541  0.65188668  0.04624587    -0.78400
C441        C  0.63614805  0.62761364  0.02064738     0.82300
N442        N  0.61100240  0.59963171  0.03717533    -0.78400
C443        C  0.60688770  0.59520811  0.07747189     0.82400
N444        N  0.62832007  0.61886047  0.10265996    -0.80100
C445        C  0.90941070  0.64918770  0.35215969     0.79900
N446        N  0.89489600  0.62364773  0.38071756    -0.78400
C447        C  0.92003416  0.60704203  0.40816270     0.82300
N448        N  0.96014500  0.61463332  0.40596681    -0.78400
C449        C  0.97634802  0.63733518  0.37567846     0.82400
N450        N  0.95057046  0.65571002  0.34869049    -0.80100
C451        C  0.08763862  0.65103682  0.34927715     0.79900
N452        N  0.10294360  0.61978285  0.37083587    -0.78400
C453        C  0.07823837  0.59492489  0.39151987     0.82300
N454        N  0.03798588  0.60155637  0.39119591    -0.78400
C455        C  0.02121679  0.63259162  0.37014350     0.82400
N456        N  0.04631256  0.65794784  0.34857900    -0.80100
C457        C  0.65074426  0.90709344  0.34809199     0.79900
N458        N  0.62155993  0.89214906  0.37262382    -0.78400
C459        C  0.59755572  0.91735033  0.39362081     0.82300
N460        N  0.60315532  0.95760891  0.39087510    -0.78400
C461        C  0.63265653  0.97408251  0.36756150     0.82400
N462        N  0.65708310  0.94851083  0.34547908    -0.80100
C463        C  0.65157426  0.08653065  0.35130551     0.79900
N464        N  0.62787404  0.10095296  0.38143235    -0.78400
C465        C  0.60990601  0.07537026  0.40753558     0.82300
N466        N  0.61520580  0.03516388  0.40318519    -0.78400
C467        C  0.63727188  0.01916029  0.37241786     0.82400
N468        N  0.65624801  0.04520447  0.34601451    -0.80100
C469        C  0.91097871  0.34353532  0.64975728     0.79900
N470        N  0.95239952  0.33995720  0.65512351    -0.78400
C471        C  0.97790333  0.35792506  0.62746397     0.82300
N472        N  0.96131425  0.37761655  0.59543995    -0.78400
C473        C  0.92108507  0.38344299  0.59213699     0.82400
N474        N  0.89607451  0.36671716  0.61950115    -0.80100
C475        C  0.08949445  0.35243879  0.65529849     0.79900
N476        N  0.04869637  0.34304070  0.65596077    -0.78400
C477        C  0.02238325  0.36564264  0.63296154     0.82300
N478        N  0.03767482  0.39575949  0.60947414    -0.78400
C479        C  0.07757715  0.40418269  0.60832360     0.82400
N480        N  0.10334557  0.38289119  0.63158701    -0.80100
C481        C  0.35577939  0.90719948  0.65945857     0.79900
N482        N  0.38479845  0.89294600  0.63426035    -0.78400
C483        C  0.40440936  0.91834364  0.60928941     0.82300
N484        N  0.39639577  0.95817342  0.61063537    -0.78400
C485        C  0.36834621  0.97413483  0.63598941     0.82400
N486        N  0.34667715  0.94819413  0.66036848    -0.80100
C487        C  0.34180900  0.08624459  0.64735322     0.79900
N488        N  0.36556446  0.10080316  0.61729998    -0.78400
C489        C  0.38865516  0.07556955  0.59540583     0.82300
N490        N  0.38734141  0.03562417  0.60271366    -0.78400
C491        C  0.36378523  0.01933710  0.63208953     0.82400
N492        N  0.34086343  0.04503603  0.65564312    -0.80100
C493        C  0.65384941  0.34911669  0.90995346     0.79900
N494        N  0.65702608  0.34279711  0.95122428    -0.78400
C495        C  0.63818065  0.36926326  0.97723397     0.82300
N496        N  0.61765090  0.40115461  0.96121786    -0.78400
C497        C  0.61318958  0.40599571  0.92084668     0.82400
N498        N  0.63108354  0.37981436  0.89542709    -0.80100
C499        C  0.64872199  0.34454535  0.08908250     0.79900
N500        N  0.61770838  0.36730074  0.10313425    -0.78400
C501        C  0.59248014  0.38613994  0.07725005     0.82300
N502        N  0.59854693  0.38256414  0.03700425    -0.78400
C503        C  0.63054524  0.36194523  0.02152261     0.82400
N504        N  0.65616304  0.34230192  0.04790091    -0.80100
C505        C  0.34077178  0.63994341  0.91139043     0.79900
N506        N  0.36531976  0.61029942  0.89734423    -0.78400
C507        C  0.39093340  0.59106310  0.92250540     0.82300
N508        N  0.39082355  0.60019081  0.96230608    -0.78400
C509        C  0.36629006  0.62916704  0.97800958     0.82400
N510        N  0.34136144  0.65025950  0.95206341    -0.80100
C511        C  0.34774570  0.64831725  0.08969917     0.79900
N512        N  0.37831219  0.62536205  0.10455914    -0.78400
C513        C  0.40683271  0.61029310  0.07961520     0.82300
N514        N  0.40388798  0.61706069  0.03940658    -0.78400
C515        C  0.37157194  0.63636199  0.02275500     0.82400
N516        N  0.34330344  0.65318274  0.04830013    -0.80100
C517        C  0.34954790  0.90880100  0.34868530     0.79900
N518        N  0.34515154  0.94996515  0.34250101    -0.78400
C519        C  0.36240824  0.97657186  0.36948320     0.82300
N520        N  0.38214680  0.96125609  0.40223552    -0.78400
C521        C  0.38820023  0.92110267  0.40710972     0.82400
N522        N  0.37237068  0.89504964  0.37991569    -0.80100
C523        C  0.35020696  0.08867817  0.34896397     0.79900
N524        N  0.34339217  0.04756573  0.34467011    -0.78400
C525        C  0.37047427  0.02062611  0.36135677     0.82300
N526        N  0.40371320  0.03556294  0.38038308    -0.78400
C527        C  0.40874890  0.07557447  0.38687818     0.82400
N528        N  0.38174325  0.10197421  0.37148054    -0.80100
C529        C  0.91004257  0.34541836  0.34778460     0.79900
N530        N  0.89509153  0.37450868  0.37237432    -0.78400
C531        C  0.92021204  0.39740411  0.39468839     0.82300
N532        N  0.96041753  0.39094950  0.39301659    -0.78400
C533        C  0.97683698  0.36190199  0.36909214     0.82400
N534        N  0.95134506  0.33849621  0.34586584    -0.80100
C535        C  0.08882497  0.34631180  0.34983817     0.79900
N536        N  0.10316359  0.37048435  0.37961811    -0.78400
C537        C  0.07800602  0.38546350  0.40789392     0.82300
N538        N  0.03802331  0.37763248  0.40536964    -0.78400
C539        C  0.02180620  0.35681580  0.37380365     0.82400
N540        N  0.04761507  0.33996311  0.34582859    -0.80100
C541        C  0.35258649  0.34419556  0.90950020     0.79900
N542        N  0.34466746  0.34261623  0.95067820    -0.78400
C543        C  0.36779136  0.36573623  0.97651068     0.82300
N544        N  0.39674279  0.39006332  0.96042300    -0.78400
C545        C  0.40399333  0.39165349  0.92038491     0.82400
N546        N  0.38227488  0.36845407  0.89501816    -0.80100
C547        C  0.34709858  0.34800360  0.08871755     0.79900
N548        N  0.34274631  0.34338570  0.04720303    -0.78400
C549        C  0.36407850  0.36867805  0.02181433     0.82300
N550        N  0.38814120  0.39740068  0.03856078    -0.78400
C551        C  0.39280644  0.40112059  0.07882583     0.82400
N552        N  0.37263246  0.37623448  0.10385355    -0.80100
C553        C  0.14934768  0.40957120  0.15204946     0.79900
N554        N  0.11825368  0.39559041  0.12936263    -0.78400
C555        C  0.09337296  0.42156525  0.11021999     0.82300
N556        N  0.09977538  0.46175620  0.11342469    -0.78400
C557        C  0.13152423  0.47711269  0.13452615     0.82400
N558        N  0.15682402  0.45069724  0.15446345    -0.80100
C559        C  0.14864206  0.58892292  0.14923375     0.79900
N560        N  0.15403171  0.54791318  0.15533851    -0.78400
C561        C  0.13987946  0.52109590  0.12686074     0.82300
N562        N  0.12244218  0.53612204  0.09272619    -0.78400
C563        C  0.11458092  0.57599550  0.08817318     0.82400
N564        N  0.12745355  0.60222767  0.11672484    -0.80100
C565        C  0.41000566  0.15143375  0.15060122     0.79900
N566        N  0.39520661  0.12666899  0.12149010    -0.78400
C567        C  0.42022372  0.11007984  0.09398084     0.82300
N568        N  0.46031296  0.11717373  0.09638426    -0.78400
C569        C  0.47686203  0.13853525  0.12734435     0.82400
N570        N  0.45135388  0.15678562  0.15472470    -0.80100
C571        C  0.58866211  0.14848248  0.15308658     0.79900
N572        N  0.54752775  0.15617296  0.15477996    -0.78400
C573        C  0.52166272  0.13257889  0.13224847     0.82300
N574        N  0.53757374  0.10259322  0.10909141    -0.78400
C575        C  0.57768939  0.09546573  0.10749394     0.82400
N576        N  0.60316519  0.11857167  0.12921430    -0.80100
C577        C  0.41125166  0.14667739  0.84546865     0.79900
N578        N  0.45197564  0.15685258  0.84647233    -0.78400
C579        C  0.47752327  0.13566390  0.87179135     0.82300
N580        N  0.46147157  0.10663127  0.89600827    -0.78400
C581        C  0.42195905  0.09677055  0.89469925     0.82400
N582        N  0.39704570  0.11634550  0.86912262    -0.80100
C583        C  0.58932581  0.15228360  0.85199888     0.79900
N584        N  0.60404847  0.12780347  0.88133370    -0.78400
C585        C  0.57920900  0.11221723  0.90954688     0.82300
N586        N  0.53916264  0.12006912  0.90760233    -0.78400
C587        C  0.52253174  0.14125021  0.87643300     0.82400
N588        N  0.54805140  0.15844175  0.84837457    -0.80100
C589        C  0.41066958  0.84482931  0.14893829     0.79900
N590        N  0.45192588  0.83767422  0.15127644    -0.78400
C591        C  0.47797701  0.86253681  0.13026610     0.82300
N592        N  0.46211835  0.89352512  0.10835293    -0.78400
C593        C  0.42191688  0.90012780  0.10607902     0.82400
N594        N  0.39631563  0.87555979  0.12600088    -0.80100
C595        C  0.58999144  0.84429432  0.14821167     0.79900
N596        N  0.54866453  0.83849293  0.15226184    -0.78400
C597        C  0.52286076  0.85663767  0.12498562     0.82300
N598        N  0.53917279  0.87830846  0.09407574    -0.78400
C599        C  0.57922453  0.88580120  0.09164815     0.82400
N600        N  0.60444670  0.86940241  0.11918791    -0.80100
C601        C  0.84686842  0.40694432  0.14850594     0.79900
N602        N  0.84128345  0.44810844  0.15346235    -0.78400
C603        C  0.85705194  0.47428287  0.12520233     0.82300
N604        N  0.87595650  0.45842629  0.09229664    -0.78400
C605        C  0.88411314  0.41850022  0.08925261     0.82400
N606        N  0.86997722  0.39293676  0.11772523    -0.80100
C607        C  0.85109168  0.58584456  0.15272310     0.79900
N608        N  0.88274691  0.59931384  0.13054650    -0.78400
C609        C  0.90605903  0.57309796  0.10990159     0.82300
N610        N  0.89762414  0.53320444  0.11116665    -0.78400
C611        C  0.86573177  0.51833365  0.13234758     0.82400
N612        N  0.84175166  0.54500578  0.15350137    -0.80100
C613        C  0.84829755  0.14834460  0.41207301     0.79900
N614        N  0.87961003  0.12592322  0.39815914    -0.78400
C615        C  0.90295555  0.10480883  0.42403866     0.82300
N616        N  0.89476424  0.10558433  0.46396344    -0.78400
C617        C  0.86331538  0.12702472  0.47929579     0.82400
N618        N  0.83940461  0.14889199  0.45304454    -0.80100
C619        C  0.84534640  0.14414290  0.59072952     0.79900
N620        N  0.83937614  0.14846422  0.54955360    -0.78400
C621        C  0.85578924  0.12040298  0.52364823     0.82300
N622        N  0.87591386  0.08830064  0.53977879    -0.78400
C623        C  0.88445424  0.08591116  0.57970997     0.82400
N624        N  0.86952534  0.11422916  0.60502086    -0.80100
C625        C  0.15255692  0.84930669  0.40965968     0.79900
N626        N  0.12204321  0.87263053  0.39551246    -0.78400
C627        C  0.09809221  0.89295629  0.42132002     0.82300
N628        N  0.10488631  0.89042602  0.46148517    -0.78400
C629        C  0.13580994  0.86827798  0.47711568     0.82400
N630        N  0.16023048  0.84708770  0.45084488    -0.80100
C631        C  0.15989908  0.85539840  0.58912027     0.79900
N632        N  0.13675452  0.88603597  0.60348036    -0.78400
C633        C  0.11731894  0.91108649  0.57789416     0.82300
N634        N  0.12206195  0.90625099  0.53765193    -0.78400
C635        C  0.14288477  0.87459602  0.52171574     0.82400
N636        N  0.16205936  0.84827986  0.54782244    -0.80100
C637        C  0.84963678  0.40844660  0.84695822     0.79900
N638        N  0.84137368  0.44944210  0.84486676    -0.78400
C639        C  0.86632081  0.47613953  0.86481327     0.82300
N640        N  0.89820647  0.46110785  0.88599990    -0.78400
C641        C  0.90513961  0.42102917  0.88925910     0.82400
N642        N  0.88079566  0.39477792  0.86980363    -0.80100
C643        C  0.84290706  0.58784874  0.85303858     0.79900
N644        N  0.86474447  0.60154075  0.88485673    -0.78400
C645        C  0.88219131  0.57546576  0.91075318     0.82300
N646        N  0.87685265  0.53537546  0.90547880    -0.78400
C647        C  0.85772904  0.52010691  0.87244308     0.82400
N648        N  0.84035924  0.54672148  0.84542917    -0.80100
C649        C  0.84750074  0.84872962  0.41096478     0.79900
N650        N  0.87114121  0.87878365  0.39611148    -0.78400
C651        C  0.88805852  0.90609141  0.42125166     0.82300
N652        N  0.88201352  0.90281610  0.46149161    -0.78400
C653        C  0.86159643  0.87119972  0.47798938     0.82400
N654        N  0.84343770  0.84376643  0.45239013    -0.80100
C655        C  0.85358098  0.84445566  0.58975367     0.79900
N656        N  0.84482539  0.84368221  0.54878743    -0.78400
C657        C  0.86870736  0.86555318  0.52260110     0.82300
N658        N  0.89964972  0.88779451  0.53813957    -0.78400
C659        C  0.90753548  0.88894450  0.57819340     0.82400
N660        N  0.88475081  0.86702940  0.60381352    -0.80100
C661        C  0.40981035  0.83851963  0.85758312     0.79900
N662        N  0.45112490  0.83662516  0.85040844    -0.78400
C663        C  0.47682332  0.85917146  0.87429231     0.82300
N664        N  0.46044493  0.88327018  0.90326752    -0.78400
C665        C  0.42017984  0.88690487  0.90837577     0.82400
N666        N  0.39494640  0.86405970  0.88602328    -0.80100
C667        C  0.58851546  0.85083272  0.84521712     0.79900
N668        N  0.60293143  0.88135754  0.86851906    -0.78400
C669        C  0.57779228  0.90270523  0.89233193     0.82300
N670        N  0.53797722  0.89421897  0.89231531    -0.78400
C671        C  0.52186779  0.86433689  0.86918441     0.82400
N672        N  0.54754813  0.84152184  0.84551649    -0.80100
O673        O  0.25366444  0.77471643  0.67656837    -0.88700
C674        C  0.26607416  0.83325140  0.78655154     0.87300
Mg675      Mg  0.20022560  0.73977624  0.66058045     1.58100
O676        O  0.32347463  0.74276697  0.77847962    -0.88400
O677        O  0.31893208  0.76629012  0.68342929    -0.75700
C678        C  0.16547655  0.61729508  0.81766811     0.92400
O679        O  0.18275701  0.81565675  0.73017696    -0.75600
O680        O  0.14611048  0.63932300  0.79244059    -0.83100
Mg681      Mg  0.24239234  0.83531951  0.70054442     1.58000
C682        C  0.31781668  0.66227667  0.88025047     0.92300
O683        O  0.29678258  0.86922061  0.67363981    -0.81300
H684        H  0.36644635  0.70943232  0.75198146    -0.06700
C685        C  0.21352081  0.73069983  0.83648606     0.87300
O686        O  0.22970306  0.67982940  0.68054273    -0.75800
O687        O  0.27773193  0.81933172  0.75393142    -0.88600
O688        O  0.32650554  0.69925320  0.87347060    -0.81400
C689        C  0.37935504  0.81503593  0.83492656     0.92400
C690        C  0.33363581  0.87623045  0.68248214     0.92300
Mg691      Mg  0.25739836  0.65776260  0.79975564     1.58000
O692        O  0.20244616  0.62388294  0.82655498    -0.81300
O693        O  0.31728642  0.67745795  0.77034973    -0.75600
O694        O  0.37243611  0.82376945  0.79795057    -0.81400
O695        O  0.20694405  0.85086633  0.64273247    -0.83100
O696        O  0.12717851  0.66998897  0.70155527    -0.81400
C697        C  0.33722408  0.71009100  0.76672483     0.86700
O698        O  0.22210368  0.67358555  0.74595037    -0.88600
O699        O  0.24629796  0.71863096  0.82324460    -0.88700
O700        O  0.18102052  0.72688612  0.81632737    -0.75700
Mg701      Mg  0.33874052  0.79628236  0.74304803     1.58000
O702        O  0.35763305  0.78965799  0.85443708    -0.83100
H703        H  0.28720072  0.74735674  0.63430702    -0.06800
O704        O  0.17660774  0.75049196  0.72141751    -0.88400
H705        H  0.13374787  0.78346543  0.74850447    -0.06700
H706        H  0.24860720  0.63076738  0.71242086    -0.06800
C707        C  0.16287006  0.78300404  0.73355815     0.86700
C708        C  0.28640608  0.76257007  0.66329323     0.87300
C709        C  0.23374267  0.65992785  0.71318682     0.87300
H710        H  0.21265939  0.74589450  0.86547785    -0.06800
O711        O  0.27006941  0.81360091  0.81931068    -0.75900
Mg712      Mg  0.16113223  0.69703873  0.75669275     1.58000
H713        H  0.25115476  0.86238729  0.78706808    -0.06800
C714        C  0.18212535  0.83185151  0.61998240     0.92300
O715        O  0.14253055  0.70481500  0.64561087    -0.83100
C716        C  0.12047438  0.67949764  0.66470631     0.92400
O717        O  0.35337238  0.85427872  0.70747714    -0.83100
Mg718      Mg  0.29973490  0.75395683  0.83921026     1.58200
O719        O  0.17322840  0.79476963  0.62605118    -0.81400
O720        O  0.29290836  0.64264330  0.85804338    -0.83100
O721        O  0.77791255  0.74651681  0.67571238    -0.88700
C722        C  0.83854782  0.73411164  0.78340302     0.87300
Mg723      Mg  0.74111969  0.79951356  0.66214342     1.58100
O724        O  0.74884713  0.67557138  0.77485061    -0.88400
O725        O  0.77177042  0.68092548  0.67958094    -0.75700
C726        C  0.61916577  0.82912449  0.82103861     0.92400
O727        O  0.81783167  0.81680216  0.72958796    -0.75600
O728        O  0.64053092  0.84964341  0.79612322    -0.83100
Mg729      Mg  0.83894444  0.75823177  0.69806859     1.58000
C730        C  0.67039650  0.67764960  0.87840494     0.92300
O731        O  0.87384384  0.70449496  0.66905841    -0.81300
H732        H  0.71590000  0.63283196  0.74746360    -0.06700
C733        C  0.73354996  0.78354384  0.83738403     0.87300
O734        O  0.68238462  0.76785762  0.68174846    -0.75800
O735        O  0.82534937  0.72157968  0.75077605    -0.88600
O736        O  0.70725244  0.66971432  0.87048064    -0.81400
C737        C  0.82115693  0.61909603  0.82988291     0.92400
C738        C  0.88124329  0.66739450  0.67693107     0.92300
Mg739      Mg  0.66204733  0.73890183  0.79981949     1.58000
O740        O  0.62672557  0.79206477  0.82873510    -0.81300
O741        O  0.68318845  0.68045532  0.76835543    -0.75600
O742        O  0.82988720  0.62545336  0.79281933    -0.81400
O743        O  0.85177806  0.79513768  0.64104195    -0.83100
O744        O  0.67029412  0.87091210  0.70580464    -0.81400
C745        C  0.71621935  0.66150991  0.76325658     0.86700
O746        O  0.67559947  0.77560000  0.74709097    -0.88600
O747        O  0.72306021  0.75122075  0.82200670    -0.88700
O748        O  0.72879402  0.81679787  0.81886873    -0.75700
Mg749      Mg  0.80223788  0.66068258  0.73879493     1.58000
O750        O  0.79669989  0.64172142  0.84937201    -0.83100
H751        H  0.75199960  0.71404167  0.63169520    -0.06800
O752        O  0.75212739  0.82195559  0.72345532    -0.88400
H753        H  0.78538630  0.86450533  0.75078119    -0.06700
H754        H  0.63369857  0.74780848  0.71339822    -0.06800
C755        C  0.78486975  0.83584724  0.73495898     0.86700
C756        C  0.76695786  0.71408300  0.66084052     0.87300
C757        C  0.66239914  0.76355729  0.71426333     0.87300
H758        H  0.74811847  0.78339246  0.86672476    -0.06800
O759        O  0.81859222  0.73028976  0.81596066    -0.75900
Mg760      Mg  0.69843295  0.83647398  0.75954205     1.58000
H761        H  0.86718018  0.74999540  0.78400195    -0.06800
C762        C  0.83160741  0.82077457  0.62035715     0.92300
O763        O  0.70419103  0.85653219  0.64913404    -0.83100
C764        C  0.67896390  0.87805828  0.66891433     0.92400
O765        O  0.85991023  0.64711454  0.70207638    -0.83100
Mg766      Mg  0.76012106  0.69871392  0.83591289     1.58200
O767        O  0.79476693  0.82915512  0.62824525    -0.81400
O768        O  0.64963003  0.70239618  0.85722707    -0.83100
O769        O  0.75050565  0.82022710  0.27541159    -0.88700
C770        C  0.76407037  0.71338130  0.33845696     0.87300
Mg771      Mg  0.69765223  0.83303846  0.23772220     1.58100
O772        O  0.82466957  0.72197061  0.25043705    -0.88400
O773        O  0.81640114  0.81732484  0.27157836    -0.75700
C774        C  0.67465242  0.67201795  0.11827757     0.92400
O775        O  0.68029288  0.76616252  0.31555257    -0.75600
O776        O  0.65335903  0.69734339  0.13822703    -0.83100
Mg777      Mg  0.73818525  0.79899985  0.33674214     1.58000
C778        C  0.82648361  0.61724418  0.17248908     0.92300
O779        O  0.79093989  0.82984193  0.37101424    -0.81300
H780        H  0.86752418  0.74984937  0.21804865    -0.06700
C781        C  0.71826748  0.65769549  0.23418307     0.87300
O782        O  0.73032572  0.81284135  0.17961491    -0.75800
O783        O  0.77556524  0.74620288  0.32473371    -0.88600
O784        O  0.83443709  0.62677433  0.20906216    -0.81400
C785        C  0.87915474  0.66928592  0.32653348     0.92400
C786        C  0.82761556  0.82256203  0.38066222     0.92300
Mg787      Mg  0.76353825  0.69449922  0.16280019     1.58000
O788        O  0.71129159  0.66423854  0.12759484    -0.81300
O789        O  0.82113089  0.72730417  0.18456681    -0.75600
O790        O  0.87011542  0.70598830  0.33408610    -0.81400
O791        O  0.70102482  0.85644393  0.34834067    -0.83100
O792        O  0.62980380  0.78740655  0.16628226    -0.81400
C793        C  0.83919375  0.73342252  0.21796137     0.86700
O794        O  0.72570110  0.74708350  0.17529141    -0.88600
O795        O  0.75081822  0.67275462  0.22378302    -0.88700
O796        O  0.68497450  0.67589816  0.22816437    -0.75700
Mg797      Mg  0.83687016  0.75901935  0.30382193     1.58000
O798        O  0.85999776  0.64827838  0.30036276    -0.83100
H799        H  0.78315054  0.86406458  0.24941556    -0.06800
O800        O  0.67618849  0.77149451  0.24967979    -0.88400
H801        H  0.63353708  0.74374406  0.28246886    -0.06700
H802        H  0.75254727  0.78032493  0.13243511    -0.06800
C803        C  0.66191509  0.76009061  0.28230171     0.86700
C804        C  0.78307226  0.83530862  0.26508548     0.87300
C805        C  0.73654176  0.77983337  0.16099379     0.87300
H806        H  0.71819863  0.62882863  0.24965505    -0.06800
O807        O  0.76999829  0.68047545  0.31952397    -0.75900
Mg808      Mg  0.66432439  0.73436645  0.19622100     1.58000
H809        H  0.74762099  0.71276949  0.36675998    -0.06800
C810        C  0.67561634  0.87656032  0.32734277     0.92300
O811        O  0.64025375  0.84528182  0.19956855    -0.83100
C812        C  0.62063561  0.82415171  0.17377619     0.92400
O813        O  0.84890879  0.79654626  0.36162614    -0.83100
Mg814      Mg  0.80330564  0.66041406  0.26180772     1.58200
O815        O  0.66751368  0.86746934  0.29068361    -0.81400
O816        O  0.80098535  0.63695148  0.15117421    -0.83100
O817        O  0.72460335  0.24804650  0.82351603    -0.88700
C818        C  0.66034674  0.23424875  0.71721306     0.87300
Mg819      Mg  0.76200726  0.30070817  0.83592352     1.58100
O820        O  0.74862878  0.17390161  0.72467808    -0.88400
O821        O  0.72950775  0.18226914  0.82010638    -0.75700
C822        C  0.88049970  0.32354490  0.67530407     0.92400
O823        O  0.68390805  0.31871768  0.76972279    -0.75600
O824        O  0.86112760  0.34487513  0.70099595    -0.83100
Mg825      Mg  0.66316529  0.26079218  0.80251070     1.58000
C826        C  0.82594769  0.17031350  0.62110923     0.92300
O827        O  0.62891227  0.20859151  0.83297603    -0.81300
H828        H  0.78077048  0.12995952  0.75110574    -0.06700
C829        C  0.76410102  0.28035558  0.66078687     0.87300
O830        O  0.82021162  0.26813753  0.81580164    -0.75800
O831        O  0.67501797  0.22324900  0.74979163    -0.88600
O832        O  0.78899808  0.16374799  0.63009518    -0.81400
C833        C  0.67228127  0.11847996  0.67367208     0.92400
C834        C  0.61971537  0.17181417  0.82607395     0.92300
Mg835      Mg  0.83565022  0.23449789  0.69722957     1.58000
O836        O  0.87053049  0.28712413  0.66720876    -0.81300
O837        O  0.81445123  0.17663830  0.72954463    -0.75600
O838        O  0.66512951  0.12816574  0.71030164    -0.81400
O839        O  0.65169948  0.29799065  0.86004660    -0.83100
O840        O  0.83336508  0.36732645  0.79072613    -0.81400
C841        C  0.78100358  0.15870381  0.73541517     0.86700
O842        O  0.82330888  0.27216546  0.74995543    -0.88600
O843        O  0.77448101  0.24755484  0.67540985    -0.88700
O844        O  0.77066730  0.31348097  0.67915760    -0.75700
Mg845      Mg  0.69618856  0.16190677  0.76250884     1.58000
O846        O  0.69792999  0.13759654  0.65196700    -0.83100
H847        H  0.75199695  0.21555835  0.86662864    -0.06800
O848        O  0.74974741  0.32193718  0.77454226    -0.88400
H849        H  0.71731069  0.36527369  0.74741738    -0.06700
H850        H  0.86689186  0.24577738  0.78265044    -0.06800
C851        C  0.71726628  0.33675315  0.76351871     0.86700
C852        C  0.73569985  0.21555470  0.83821060     0.87300
C853        C  0.83824712  0.26162968  0.78252641     0.87300
H854        H  0.74828671  0.28081843  0.63209901    -0.06800
O855        O  0.67851810  0.22810132  0.68391858    -0.75900
Mg856      Mg  0.80303209  0.33369913  0.73760529     1.58000
H857        H  0.63186641  0.25040059  0.71713594    -0.06800
C858        C  0.67325893  0.32352180  0.87936377     0.92300
O859        O  0.79880373  0.35820375  0.84801498    -0.83100
C860        C  0.82492016  0.37730904  0.82703139     0.92400
O861        O  0.63925014  0.15018433  0.80075389    -0.83100
Mg862      Mg  0.73627674  0.19493243  0.66337309     1.58200
O863        O  0.70973658  0.33111004  0.86963239    -0.81400
O864        O  0.84754653  0.19608061  0.64020620    -0.83100
C865        C  0.15481759  0.40802860  0.85437626     0.79900
N866        N  0.15659566  0.44899166  0.84590582    -0.78400
C867        C  0.13870755  0.47577828  0.87224766     0.82300
N868        N  0.11952261  0.46080693  0.90540682    -0.78400
C869        C  0.11457104  0.42074615  0.91135476     0.82400
N870        N  0.13279243  0.39446294  0.88618068    -0.80100
C871        C  0.14273492  0.58636002  0.84031881     0.79900
N872        N  0.11155422  0.60023364  0.86303177    -0.78400
C873        C  0.09007730  0.57457662  0.88624059     0.82300
N874        N  0.09870101  0.53480718  0.88569677    -0.78400
C875        C  0.12984826  0.51952088  0.86383929     0.82400
N876        N  0.15301950  0.54572798  0.84121262    -0.80100
O877        O  0.25129431  0.32223605  0.77712319    -0.88700
C878        C  0.26625588  0.21404192  0.83830208     0.87300
Mg879      Mg  0.19839106  0.33647737  0.74084058     1.58100
O880        O  0.32319296  0.22149360  0.74748216    -0.88400
O881        O  0.31669543  0.31715384  0.76899667    -0.75700
C882        C  0.16728122  0.17773032  0.61986173     0.92400
O883        O  0.18135483  0.26751361  0.81761510    -0.75600
O884        O  0.14732203  0.20290592  0.64135019    -0.83100
Mg885      Mg  0.23998164  0.29888775  0.83790769     1.58000
C886        C  0.31866591  0.11712111  0.66961340     0.92300
O887        O  0.29346141  0.32784163  0.87218601    -0.81300
H888        H  0.36599990  0.24765889  0.71364334    -0.06700
C889        C  0.21400640  0.16105776  0.73573075     0.87300
O890        O  0.22965577  0.31604270  0.68209906    -0.75800
O891        O  0.27697874  0.24652199  0.82336694    -0.88600
O892        O  0.32789901  0.12509190  0.70625379    -0.81400
C893        C  0.38042671  0.16822216  0.82126195     0.92400
C894        C  0.33070311  0.32039359  0.87892646     0.92300
Mg895      Mg  0.25798467  0.19684116  0.66254643     1.58000
O896        O  0.20403064  0.16892160  0.62765775    -0.81300
O897        O  0.31738863  0.22743870  0.68191671    -0.75600
O898        O  0.37294678  0.20532223  0.82883872    -0.81400
O899        O  0.20270562  0.35546350  0.85170987    -0.83100
O900        O  0.12738508  0.29339024  0.67049855    -0.81400
C901        C  0.33700070  0.23247503  0.71456274     0.86700
O902        O  0.22227422  0.25054610  0.67655381    -0.88600
O903        O  0.24675565  0.17473293  0.72404913    -0.88700
O904        O  0.18118685  0.18036000  0.73051183    -0.75700
Mg905      Mg  0.33767698  0.25860382  0.80008552     1.58000
O906        O  0.35889556  0.14761251  0.79652254    -0.83100
H907        H  0.28376220  0.36529008  0.74968853    -0.06800
O908        O  0.17540516  0.27548465  0.75223209    -0.88400
H909        H  0.13297661  0.24776006  0.78527306    -0.06700
H910        H  0.24993001  0.28356965  0.63403956    -0.06800
C911        C  0.16175395  0.26338292  0.78483430     0.86700
C912        C  0.28370119  0.33639430  0.76510763     0.87300
C913        C  0.23423063  0.28315915  0.66276866     0.87300
H914        H  0.21337517  0.13240017  0.75157158    -0.06800
O915        O  0.27071558  0.18094308  0.81942273    -0.75900
Mg916      Mg  0.16113131  0.23927612  0.69909645     1.58000
H917        H  0.25167492  0.21393000  0.86761839    -0.06800
C918        C  0.17758219  0.37712137  0.83188499     0.92300
O919        O  0.14153059  0.35039834  0.70398471    -0.83100
C920        C  0.12026243  0.33041184  0.67868180     0.92400
O921        O  0.35108747  0.29587433  0.85708748    -0.83100
Mg922      Mg  0.30059149  0.16052996  0.76012468     1.58200
O923        O  0.16945283  0.37048228  0.79473880    -0.81400
O924        O  0.29346871  0.13859093  0.64962146    -0.83100
O925        O  0.27575290  0.82300890  0.24766806    -0.88700
C926        C  0.33603105  0.71459311  0.23501895     0.87300
Mg927      Mg  0.23890424  0.83598041  0.30070110     1.58100
O928        O  0.24702077  0.72317464  0.17539293    -0.88400
O929        O  0.26968808  0.81838649  0.18196800    -0.75700
C930        C  0.11765866  0.67638596  0.32829142     0.92400
O931        O  0.31556986  0.76917290  0.31882445    -0.75600
O932        O  0.13775003  0.70221777  0.34887334    -0.87100
Mg933      Mg  0.33666893  0.80044995  0.26018897     1.58000
C934        C  0.16800550  0.62008210  0.17457402     0.92300
O935        O  0.37125844  0.82886223  0.20653557    -0.81300
H936        H  0.21435042  0.75012421  0.13210215    -0.06700
C937        C  0.23213522  0.66048425  0.28258971     0.87300
O938        O  0.18021503  0.81602520  0.26850398    -0.75800
O939        O  0.32240373  0.74742696  0.22350075    -0.88600
O940        O  0.20474371  0.62917733  0.16710914    -0.81400
C941        C  0.32210476  0.66878373  0.11996548     0.92400
C942        C  0.37980117  0.82045322  0.16983936     0.92300
Mg943      Mg  0.16023806  0.69722590  0.23779383     1.58000
O944        O  0.12645961  0.66806100  0.29162766    -0.81300
O945        O  0.18120563  0.72879446  0.17928561    -0.75600
O946        O  0.32992434  0.70550489  0.12877674    -0.81400
O947        O  0.35048425  0.85816817  0.29747806    -0.83100
O948        O  0.16747991  0.79207225  0.36952810    -0.81400
C949        C  0.21446175  0.73439649  0.16083318     0.86700
O950        O  0.17404076  0.75038141  0.27452889    -0.88600
O951        O  0.22130421  0.67512076  0.24995251    -0.88700
O952        O  0.22689745  0.67926085  0.31568589    -0.75700
Mg953      Mg  0.30075086  0.75929395  0.16209913     1.58000
O954        O  0.29599512  0.64815811  0.13963648    -0.83100
H955        H  0.24937820  0.86633600  0.21459860    -0.06800
O956        O  0.24980358  0.77447095  0.32207014    -0.88400
H957        H  0.28213131  0.74798262  0.36587551    -0.06700
H958        H  0.13221261  0.78426573  0.24684206    -0.06800
C959        C  0.28221834  0.76348932  0.33702463     0.86700
C960        C  0.26466401  0.83738433  0.21498455     0.87300
C961        C  0.16071846  0.78333728  0.26295165     0.87300
H962        H  0.24730980  0.63147485  0.28288460    -0.06800
O963        O  0.31681947  0.68177151  0.22943661    -0.75900
Mg964      Mg  0.19604394  0.73835844  0.33570992     1.58000
H965        H  0.36454634  0.71389437  0.25111848    -0.06800
C966        C  0.32955516  0.87786135  0.32334556     0.92300
O967        O  0.20250546  0.84877875  0.35852872    -0.83100
C968        C  0.17662428  0.82841117  0.37867122     0.92400
O969        O  0.35903789  0.79524081  0.14918210    -0.83100
Mg970      Mg  0.25840598  0.66181405  0.19709167     1.58200
O971        O  0.29270143  0.86906832  0.33073451    -0.81400
O972        O  0.14686829  0.63946200  0.20050682    -0.83100
O973        O  0.72381310  0.17295007  0.25058292    -0.88700
C974        C  0.66085344  0.28049310  0.23628959     0.87300
Mg975      Mg  0.76091599  0.16007871  0.30354193     1.58100
O976        O  0.74945625  0.27258224  0.17613973    -0.88400
O977        O  0.72887464  0.17743215  0.18477333    -0.75700
C978        C  0.87960058  0.32057344  0.32702098     0.92400
O979        O  0.68309894  0.22680248  0.32129132    -0.75600
O980        O  0.85989368  0.29476413  0.34789289    -0.83100
Mg981      Mg  0.66265431  0.19464506  0.26297010     1.58000
C982        C  0.82725008  0.37617320  0.17407371     0.92300
O983        O  0.62880201  0.16463865  0.21002158    -0.81300
H984        H  0.78161620  0.24582171  0.13243465    -0.06700
C985        C  0.76375958  0.33533484  0.28285639     0.87300
O986        O  0.81920385  0.18024888  0.27103866    -0.75800
O987        O  0.67551512  0.24781346  0.22572262    -0.88600
O988        O  0.79046694  0.36714372  0.16677367    -0.81400
C989        C  0.67402248  0.32476780  0.12008056     0.92400
C990        C  0.61929836  0.17316387  0.17360809     0.92300
Mg991      Mg  0.83589199  0.29917583  0.23760749     1.58000
O992        O  0.87015575  0.32908541  0.29056372    -0.81300
O993        O  0.81519405  0.26708642  0.17936117    -0.75600
O994        O  0.66581688  0.28845259  0.13025388    -0.81400
O995        O  0.65035307  0.13690213  0.30027646    -0.83100
O996        O  0.83213450  0.20501256  0.37104074    -0.81400
C997        C  0.78181444  0.26150954  0.16117641     0.86700
O998        O  0.82281153  0.24609888  0.27502185    -0.88600
O999        O  0.77473739  0.32121612  0.25004403    -0.88700
O1000       O  0.76983315  0.31657921  0.31588774    -0.75700
Mg1001     Mg  0.69640468  0.23565103  0.16426807     1.58000
O1002       O  0.70022147  0.34587877  0.13908147    -0.83100
H1003       H  0.75093992  0.13022963  0.21743070    -0.06800
O1004       O  0.74884475  0.22137793  0.32471369    -0.88400
H1005       H  0.71652601  0.24826081  0.36824103    -0.06700
H1006       H  0.86597290  0.21311751  0.24838251    -0.06800
C1007       C  0.71642852  0.23248614  0.33954550     0.86700
C1008       C  0.73489146  0.15876296  0.21784675     0.87300
C1009       C  0.83741997  0.21342581  0.26439151     0.87300
H1010       H  0.74778406  0.36390845  0.28338864    -0.06800
O1011       O  0.67905389  0.31368904  0.22962631    -0.75900
Mg1012     Mg  0.80206568  0.25820005  0.33656632     1.58000
H1013       H  0.63227056  0.28079529  0.25224785    -0.06800
C1014       C  0.67150647  0.11723619  0.32597527     0.92300
O1015       O  0.79763388  0.14776604  0.36142464    -0.83100
C1016       C  0.82361108  0.16864620  0.38091563     0.92400
O1017       O  0.63885518  0.19903527  0.15273219    -0.83100
Mg1018     Mg  0.73737878  0.33387549  0.19704817     1.58200
O1019       O  0.70810938  0.12649686  0.33374130    -0.81400
O1020       O  0.84851192  0.35664546  0.19980956    -0.83100
C1021       C  0.15228182  0.14843270  0.40992816     0.79900
N1022       N  0.12848753  0.11843915  0.39531586    -0.78400
C1023       C  0.11299625  0.09037094  0.42045103     0.82300
N1024       N  0.12062733  0.09295759  0.46052400    -0.78400
C1025       C  0.14080798  0.12489683  0.47691985     0.82400
N1026       N  0.15766198  0.15291157  0.45119859    -0.80100
C1027       C  0.14530184  0.15481088  0.58843106     0.79900
N1028       N  0.15571991  0.15436786  0.54775917    -0.78400
C1029       C  0.13348361  0.13080576  0.52144465     0.82300
N1030       N  0.10309801  0.10783511  0.53663263    -0.78400
C1031       C  0.09350774  0.10805492  0.57618250     0.82400
N1032       N  0.11418312  0.13184754  0.60192103    -0.80100
O1033       O  0.17579553  0.27429963  0.24968203    -0.88700
C1034       C  0.28226898  0.33827072  0.23470116     0.87300
Mg1035     Mg  0.16319112  0.23704874  0.30253222     1.58100
O1036       O  0.27466335  0.24850187  0.17634369    -0.88400
O1037       O  0.17909704  0.26896583  0.18391154    -0.75700
C1038       C  0.32535455  0.12013274  0.32929037     0.92400
O1039       O  0.22937143  0.31562367  0.32004038    -0.75600
O1040       O  0.29953230  0.13967970  0.35035294    -0.83100
Mg1041     Mg  0.19698710  0.33577790  0.26172647     1.58000
C1042       C  0.37968131  0.17175094  0.17606620     0.92300
O1043       O  0.16693504  0.36965607  0.20873696    -0.81300
H1044       H  0.24795630  0.21487238  0.13367778    -0.06700
C1045       C  0.33827897  0.23616075  0.28367101     0.87300
O1046       O  0.18427057  0.17885557  0.27072576    -0.75800
O1047       O  0.24973889  0.32318901  0.22422523    -0.88600
O1048       O  0.37000488  0.20817465  0.16782248    -0.81400
C1049       C  0.32641522  0.32294531  0.11912079     0.92400
C1050       C  0.17441987  0.37862868  0.17196096     0.92300
Mg1051     Mg  0.30303272  0.16309984  0.23949706     1.58000
O1052       O  0.33334596  0.12968510  0.29275769    -0.81300
O1053       O  0.27042459  0.18271410  0.18104999    -0.75600
O1054       O  0.28981270  0.33100586  0.12825111    -0.81400
O1055       O  0.13949898  0.34789853  0.29921863    -0.83100
O1056       O  0.20902339  0.16705280  0.37090118    -0.81400
C1057       C  0.26396141  0.21560802  0.16225098     0.86700
O1058       O  0.25003110  0.17555879  0.27641671    -0.88600
O1059       O  0.32386054  0.22474725  0.25112459    -0.88700
O1060       O  0.32000546  0.23007976  0.31693931    -0.75700
Mg1061     Mg  0.23717739  0.30120379  0.16307909     1.58000
O1062       O  0.34747828  0.29760556  0.13928563    -0.83100
H1063       H  0.13226512  0.24738643  0.21735634    -0.06800
O1064       O  0.22434081  0.24985365  0.32448270    -0.88400
H1065       H  0.25105356  0.28305274  0.36747483    -0.06700
H1066       H  0.21779297  0.13183716  0.24973014    -0.06800
C1067       C  0.23522707  0.28259986  0.33879504     0.86700
C1068       C  0.16092564  0.26322914  0.21725259     0.87300
C1069       C  0.21763477  0.16062092  0.26532791     0.87300
H1070       H  0.36668780  0.25245153  0.28376045    -0.06800
O1071       O  0.31556224  0.32001716  0.22891655    -0.75900
Mg1072     Mg  0.26199441  0.19727927  0.33756663     1.58000
H1073       H  0.28231917  0.36721757  0.24999812    -0.06800
C1074       C  0.11956979  0.32652069  0.32450719     0.92300
O1075       O  0.15080946  0.19958839  0.35985599    -0.83100
C1076       C  0.17213876  0.17413145  0.37959828     0.92400
O1077       O  0.19973725  0.35867032  0.15068434    -0.83100
Mg1078     Mg  0.33597822  0.26130055  0.19745600     1.58200
O1079       O  0.12859856  0.28977049  0.33193742    -0.81400
O1080       O  0.36057118  0.15089532  0.20235213    -0.83100
loop_ 
_geom_bond_atom_site_label_1 
_geom_bond_atom_site_label_2 
_geom_bond_distance 
_geom_bond_site_symmetry_2 
_ccdc_geom_bond_type 
N1            C6   1.353       .  A
N1            C5   1.353       .  A
N1           H33   1.038       .  S
N2            C9   1.348       .  A
N2           C10   1.347       .  A
N3            C8   1.352       .  A
N3            C7   1.352       .  A
N3           H34   1.040       .  S
N4           C11   1.348       .  A
N4           C12   1.349       .  A
C5           C13   1.389       .  A
C5           C21   1.414       .  A
C6           C22   1.412       .  A
C6           C14   1.387       .  A
C7           C15   1.387       .  A
C7           C24   1.409       .  A
C8           C23   1.411       .  A
C8           C16   1.389       .  A
C9           C21   1.404       .  A
C9           C17   1.385       .  A
C10          C24   1.407       .  A
C10          C18   1.388       .  A
C11          C19   1.389       .  A
C11          C22   1.410       .  A
C12          C20   1.384       .  A
C12          C23   1.404       .  A
C13          C14   1.369       .  A
C13          H25   1.082       .  S
C14          H26   1.082       .  S
C15          C16   1.368       .  A
C15          H27   1.082       .  S
C16          H28   1.082       .  S
C17          C18   1.370       .  A
C17          H29   1.083       .  S
C18          H30   1.082       .  S
C19          C20   1.369       .  A
C19          H31   1.081       .  S
C20          H32   1.083       .  S
C21         C417   1.468       .  S
C22         C465   1.470       .  S
C23         C527   1.467       .  S
C24         C489   1.463       .  S
N35          C40   1.352       .  A
N35          C39   1.352       .  A
N35          H67   1.040       .  S
N36          C43   1.349       .  A
N36          C44   1.349       .  A
N37          C42   1.352       .  A
N37          C41   1.350       .  A
N37          H68   1.040       .  S
N38          C45   1.346       .  A
N38          C46   1.346       .  A
C39          C47   1.386       .  A
C39          C55   1.409       .  A
C40          C56   1.412       .  A
C40          C48   1.389       .  A
C41          C49   1.389       .  A
C41          C58   1.411       .  A
C42          C57   1.409       .  A
C42          C50   1.387       .  A
C43          C55   1.408       .  A
C43          C51   1.387       .  A
C44          C58   1.405       .  A
C44          C52   1.385       .  A
C45          C53   1.385       .  A
C45          C56   1.401       .  A
C46          C54   1.388       .  A
C46          C57   1.406       .  A
C47          C48   1.370       .  A
C47          H59   1.082       .  S
C48          H60   1.082       .  S
C49          C50   1.370       .  A
C49          H61   1.082       .  S
C50          H62   1.082       .  S
C51          C52   1.371       .  A
C51          H63   1.082       .  S
C52          H64   1.083       .  S
C53          C54   1.370       .  A
C53          H65   1.082       .  S
C54          H66   1.082       .  S
C55         C479   1.468       .  S
C56         C431   1.467       .  S
C57         C453   1.465       .  S
C58         C537   1.466       .  S
N69          C74   1.353       .  A
N69          C73   1.351       .  A
N69         H101   1.038       .  S
N70          C77   1.349       .  A
N70          C78   1.351       .  A
N71          C76   1.352       .  A
N71          C75   1.353       .  A
N71         H102   1.039       .  S
N72          C79   1.348       .  A
N72          C80   1.346       .  A
C73          C81   1.387       .  A
C73          C89   1.409       .  A
C74          C90   1.413       .  A
C74          C82   1.389       .  A
C75          C83   1.388       .  A
C75          C92   1.413       .  A
C76          C91   1.411       .  A
C76          C84   1.388       .  A
C77          C89   1.410       .  A
C77          C85   1.388       .  A
C78          C92   1.407       .  A
C78          C86   1.384       .  A
C79          C87   1.384       .  A
C79          C90   1.402       .  A
C80          C88   1.389       .  A
C80          C91   1.407       .  A
C81          C82   1.368       .  A
C81          H93   1.082       .  S
C82          H94   1.082       .  S
C83          C84   1.369       .  A
C83          H95   1.082       .  S
C84          H96   1.082       .  S
C85          C86   1.372       .  A
C85          H97   1.082       .  S
C86          H98   1.082       .  S
C87          C88   1.371       .  A
C87          H99   1.082       .  S
C88         H100   1.082       .  S
C89         C483   1.464       .  S
C90         C411   1.468       .  S
C91         C459   1.464       .  S
C92         C521   1.474       .  S
N103        C108   1.351       .  A
N103        C107   1.352       .  A
N103        H135   1.041       .  S
N104        C111   1.348       .  A
N104        C112   1.348       .  A
N105        C110   1.350       .  A
N105        C109   1.351       .  A
N105        H136   1.041       .  S
N106        C113   1.347       .  A
N106        C114   1.347       .  A
C107        C115   1.388       .  A
C107        C123   1.410       .  A
C108        C124   1.409       .  A
C108        C116   1.388       .  A
C109        C117   1.386       .  A
C109        C126   1.407       .  A
C110        C125   1.411       .  A
C110        C118   1.389       .  A
C111        C123   1.403       .  A
C111        C119   1.385       .  A
C112        C126   1.406       .  A
C112        C120   1.387       .  A
C113        C121   1.388       .  A
C113        C124   1.405       .  A
C114        C122   1.385       .  A
C114        C125   1.402       .  A
C115        C116   1.370       .  A
C115        H127   1.082       .  S
C116        H128   1.082       .  S
C117        C118   1.370       .  A
C117        H129   1.082       .  S
C118        H130   1.082       .  S
C119        C120   1.372       .  A
C119        H131   1.082       .  S
C120        H132   1.082       .  S
C121        C122   1.371       .  A
C121        H133   1.082       .  S
C122        H134   1.083       .  S
C123        C447   1.468       .  S
C124        C531   1.463       .  S
C125        C473   1.463       .  S
C126        C423   1.466       .  S
N137        C142   1.352       .  A
N137        C141   1.353       .  A
N137        H169   1.038       .  S
N138        C145   1.349       .  A
N138        C146   1.347       .  A
N139        C144   1.353       .  A
N139        C143   1.352       .  A
N139        H170   1.040       .  S
N140        C147   1.348       .  A
N140        C148   1.349       .  A
C141        C149   1.389       .  A
C141        C157   1.413       .  A
C142        C158   1.411       .  A
C142        C150   1.388       .  A
C143        C151   1.388       .  A
C143        C160   1.411       .  A
C144        C159   1.412       .  A
C144        C152   1.388       .  A
C145        C157   1.404       .  A
C145        C153   1.385       .  A
C146        C160   1.408       .  A
C146        C154   1.389       .  A
C147        C155   1.388       .  A
C147        C158   1.408       .  A
C148        C156   1.384       .  A
C148        C159   1.404       .  A
C149        C150   1.369       .  A
C149        H161   1.082       .  S
C150        H162   1.082       .  S
C151        C152   1.368       .  A
C151        H163   1.082       .  S
C152        H164   1.082       .  S
C153        C154   1.371       .  A
C153        H165   1.083       .  S
C154        H166   1.082       .  S
C155        C156   1.371       .  A
C155        H167   1.082       .  S
C156        H168   1.083       .  S
C157        C501   1.469       .  S
C158        C443   1.466       .  S
C159        C513   1.471       .  S
C160        C551   1.464       .  S
N171        C176   1.353       .  A
N171        C175   1.351       .  A
N171        H203   1.038       .  S
N172        C179   1.345       .  A
N172        C180   1.347       .  A
N173        C178   1.352       .  A
N173        C177   1.353       .  A
N173        H204   1.039       .  S
N174        C181   1.349       .  A
N174        C182   1.348       .  A
C175        C183   1.387       .  A
C175        C191   1.409       .  A
C176        C192   1.413       .  A
C176        C184   1.389       .  A
C177        C185   1.388       .  A
C177        C194   1.412       .  A
C178        C193   1.410       .  A
C178        C186   1.387       .  A
C179        C191   1.404       .  A
C179        C187   1.388       .  A
C180        C194   1.402       .  A
C180        C188   1.385       .  A
C181        C189   1.385       .  A
C181        C192   1.405       .  A
C182        C190   1.387       .  A
C182        C193   1.407       .  A
C183        C184   1.368       .  A
C183        H195   1.083       .  S
C184        H196   1.082       .  S
C185        C186   1.369       .  A
C185        H197   1.082       .  S
C186        H198   1.082       .  S
C187        C188   1.370       .  A
C187        H199   1.082       .  S
C188        H200   1.083       .  S
C189        C190   1.370       .  A
C189        H201   1.082       .  S
C190        H202   1.082       .  S
C191        C435   1.460       .  S
C192        C507   1.470       .  S
C193        C545   1.465       .  S
C194        C497   1.466       .  S
N205        C210   1.352       .  A
N205        C209   1.353   1_455  A
N205        H237   1.039       .  S
N206        C213   1.347       .  A
N206        C214   1.348   1_554  A
N207        C212   1.352   1_655  A
N207        C211   1.353       .  A
N207        H238   1.039       .  S
N208        C215   1.351   1_556  A
N208        C216   1.349       .  A
C209        C217   1.386       .  A
C209        C225   1.409       .  A
C210        C226   1.413       .  A
C210        C218   1.389       .  A
C211        C219   1.389       .  A
C211        C228   1.412       .  A
C212        C227   1.409       .  A
C212        C220   1.387       .  A
C213        C225   1.407       .  A
C213        C221   1.389       .  A
C214        C228   1.401       .  A
C214        C222   1.384       .  A
C215        C223   1.385       .  A
C215        C226   1.407       .  A
C216        C224   1.389       .  A
C216        C227   1.411       .  A
C217        C218   1.368   1_655  A
C217        H229   1.082       .  S
C218        H230   1.082       .  S
C219        C220   1.368   1_655  A
C219        H231   1.082       .  S
C220        H232   1.082       .  S
C221        C222   1.368   1_554  A
C221        H233   1.082       .  S
C222        H234   1.083       .  S
C223        C224   1.371   1_554  A
C223        H235   1.083       .  S
C224        H236   1.082       .  S
C225        C609   1.465       .  S
C226        C563   1.472       .  S
C227        C873   1.465       .  S
C228        C645   1.466       .  S
N239        C244   1.352   1_565  A
N239        C243   1.352       .  A
N239        H271   1.040       .  S
N240        C247   1.349   1_556  A
N240        C248   1.349       .  A
N241        C246   1.352       .  A
N241        C245   1.352   1_545  A
N241        H272   1.040       .  S
N242        C249   1.347       .  A
N242        C250   1.347   1_554  A
C243        C251   1.389       .  A
C243        C259   1.412       .  A
C244        C260   1.409       .  A
C244        C252   1.387       .  A
C245        C253   1.387       .  A
C245        C262   1.410       .  A
C246        C261   1.411       .  A
C246        C254   1.388       .  A
C247        C259   1.406       .  A
C247        C255   1.385       .  A
C248        C262   1.408       .  A
C248        C256   1.388       .  A
C249        C257   1.388       .  A
C249        C260   1.406       .  A
C250        C258   1.385       .  A
C250        C261   1.402       .  A
C251        C252   1.370   1_565  A
C251        H263   1.082       .  S
C252        H264   1.082       .  S
C253        C254   1.370   1_565  A
C253        H265   1.082       .  S
C254        H266   1.082       .  S
C255        C256   1.371   1_554  A
C255        H267   1.083       .  S
C256        H268   1.082       .  S
C257        C258   1.371   1_554  A
C257        H269   1.082       .  S
C258        H270   1.083       .  S
C259        C599   1.469       .  S
C260        C575   1.465       .  S
C261        C585   1.467       .  S
C262        C669   1.467       .  S
N273        C278   1.351       .  A
N273        C277   1.352   1_655  A
N273        H305   1.040       .  S
N274        C281   1.348       .  A
N274        C282   1.348   1_554  A
N275        C280   1.352   1_455  A
N275        C279   1.352       .  A
N275        H306   1.040       .  S
N276        C283   1.349   1_556  A
N276        C284   1.348       .  A
C277        C285   1.387       .  A
C277        C293   1.409       .  A
C278        C294   1.412       .  A
C278        C286   1.389       .  A
C279        C287   1.389       .  A
C279        C296   1.414       .  A
C280        C295   1.410       .  A
C280        C288   1.387       .  A
C281        C293   1.408       .  A
C281        C289   1.389       .  A
C282        C296   1.403       .  A
C282        C290   1.384       .  A
C283        C291   1.384       .  A
C283        C294   1.404       .  A
C284        C292   1.388       .  A
C284        C295   1.409       .  A
C285        C286   1.370   1_455  A
C285        H297   1.082       .  S
C286        H298   1.082       .  S
C287        C288   1.370   1_455  A
C287        H299   1.082       .  S
C288        H300   1.082       .  S
C289        C290   1.371   1_554  A
C289        H301   1.081       .  S
C290        H302   1.083       .  S
C291        C292   1.371   1_554  A
C291        H303   1.083       .  S
C292        H304   1.082       .  S
C293        C555   1.467       .  S
C294        C605   1.468       .  S
C295        C641   1.469       .  S
C296        C869   1.469       .  S
N307        C312   1.352       .  A
N307        C311   1.352   1_545  A
N307        H339   1.040       .  S
N308        C315   1.347       .  A
N308        C316   1.348   1_554  A
N309        C314   1.352   1_565  A
N309        C313   1.353       .  A
N309        H340   1.040       .  S
N310        C317   1.348   1_556  A
N310        C318   1.348       .  A
C311        C319   1.387       .  A
C311        C327   1.410       .  A
C312        C328   1.412       .  A
C312        C320   1.388       .  A
C313        C321   1.389       .  A
C313        C330   1.414       .  A
C314        C329   1.410       .  A
C314        C322   1.387       .  A
C315        C327   1.407       .  A
C315        C323   1.388       .  A
C316        C330   1.404       .  A
C316        C324   1.385       .  A
C317        C325   1.386       .  A
C317        C328   1.404       .  A
C318        C326   1.388       .  A
C318        C329   1.407       .  A
C319        C320   1.370   1_565  A
C319        H331   1.082       .  S
C320        H332   1.082       .  S
C321        C322   1.371   1_565  A
C321        H333   1.082       .  S
C322        H334   1.082       .  S
C323        C324   1.370   1_554  A
C323        H335   1.082       .  S
C324        H336   1.082       .  S
C325        C326   1.371   1_554  A
C325        H337   1.083       .  S
C326        H338   1.083       .  S
C327        C593   1.467       .  S
C328        C567   1.467       .  S
C329        C581   1.466       .  S
C330        C665   1.470       .  S
N341        C346   1.349   1_655  A
N341        C345   1.352       .  A
N341        H373   1.042       .  S
N342        C349   1.349   1_565  A
N342        C350   1.346       .  A
N343        C348   1.353       .  A
N343        C347   1.352   1_455  A
N343        H374   1.041       .  S
N344        C351   1.346       .  A
N344        C352   1.348   1_545  A
C345        C353   1.388       .  A
C345        C361   1.410       .  A
C346        C362   1.407       .  A
C346        C354   1.388       .  A
C347        C355   1.386       .  A
C347        C364   1.410       .  A
C348        C363   1.414       .  A
C348        C356   1.389       .  A
C349        C361   1.403       .  A
C349        C357   1.384       .  A
C350        C364   1.407       .  A
C350        C358   1.389       .  A
C351        C359   1.389       .  A
C351        C362   1.407       .  A
C352        C360   1.385       .  A
C352        C363   1.404       .  A
C353        C354   1.371   1_655  A
C353        H365   1.082       .  S
C354        H366   1.082       .  S
C355        C356   1.371   1_655  A
C355        H367   1.082       .  S
C356        H368   1.082       .  S
C357        C358   1.374   1_545  A
C357        H369   1.082       .  S
C358        H370   1.082       .  S
C359        C360   1.372   1_545  A
C359        H371   1.082       .  S
C360        H372   1.083       .  S
C361        C623   1.472       .  S
C362       C1031   1.461       .  S
C363        C633   1.470       .  S
C364        C659   1.468       .  S
N375        C380   1.352       .  A
N375        C379   1.351   1_455  A
N375        H407   1.041       .  S
N376        C383   1.347       .  A
N376        C384   1.349   1_545  A
N377        C382   1.351   1_655  A
N377        C381   1.352       .  A
N377        H408   1.041       .  S
N378        C385   1.348   1_565  A
N378        C386   1.346       .  A
C379        C387   1.387       .  A
C379        C395   1.409       .  A
C380        C396   1.411       .  A
C380        C388   1.388       .  A
C381        C389   1.388       .  A
C381        C398   1.411       .  A
C382        C397   1.409       .  A
C382        C390   1.387       .  A
C383        C395   1.408       .  A
C383        C391   1.389       .  A
C384        C398   1.404       .  A
C384        C392   1.385       .  A
C385        C393   1.384       .  A
C385        C396   1.403       .  A
C386        C394   1.388       .  A
C386        C397   1.407       .  A
C387        C388   1.371   1_655  A
C387        H399   1.082       .  S
C388        H400   1.082       .  S
C389        C390   1.370   1_655  A
C389        H401   1.082       .  S
C390        H402   1.082       .  S
C391        C392   1.372   1_545  A
C391        H403   1.082       .  S
C392        H404   1.083       .  S
C393        C394   1.373   1_545  A
C393        H405   1.083       .  S
C394        H406   1.082       .  S
C395        C615   1.464       .  S
C396       C1023   1.469       .  S
C397        C627   1.466       .  S
C398        C651   1.469       .  S
C409        N410   1.352       .  A
C409        N414   1.382       .  A
C409        C764   1.468       .  S
N410        C411   1.343       .  A
C411        N412   1.349       .  A
N412        C413   1.358       .  A
C413        N414   1.375       .  A
C413        C419   1.501   1_565  S
C415        N416   1.352       .  A
C415        N420   1.382       .  A
C415        C833   1.470       .  S
N416        C417   1.345       .  A
C417        N418   1.350       .  A
N418        C419   1.358       .  A
C419        N420   1.374       .  A
C421        N422   1.354       .  A
C421        N426   1.386       .  A
C421        C738   1.477       .  S
N422        C423   1.344       .  A
C423        N424   1.345       .  A
N424        C425   1.356       .  A
C425        N426   1.378       .  A
C425        C429   1.505   1_655  S
C427        N428   1.384       .  A
C427        N432   1.352       .  A
C427        C716   1.468       .  S
N428        C429   1.376       .  A
C429        N430   1.359       .  A
N430        C431   1.348       .  A
C431        N432   1.342       .  A
C433        N434   1.350       .  A
C433        N438   1.386       .  A
C433        C730   1.464       .  S
N434        C435   1.339       .  A
C435        N436   1.345       .  A
N436        C437   1.357       .  A
C437        N438   1.377       .  A
C437        C441   1.505   1_556  S
C439        N440   1.386       .  A
C439        N444   1.352       .  A
C439        C774   1.470       .  S
N440        C441   1.377       .  A
C441        N442   1.357       .  A
N442        C443   1.345       .  A
C443        N444   1.342       .  A
C445        N446   1.352       .  A
C445        N450   1.381       .  A
C445        C785   1.467       .  S
N446        C447   1.345       .  A
C447        N448   1.350       .  A
N448        C449   1.359       .  A
C449        N450   1.373       .  A
C449        C455   1.501   1_655  S
C451        N452   1.351       .  A
C451        N456   1.384       .  A
C451        C930   1.471       .  S
N452        C453   1.344       .  A
C453        N454   1.347       .  A
N454        C455   1.356       .  A
C455        N456   1.376       .  A
C457        N458   1.352       .  A
C457        N462   1.386       .  A
C457        C810   1.470       .  S
N458        C459   1.343       .  A
C459        N460   1.345       .  A
N460        C461   1.355       .  A
C461        N462   1.377       .  A
C461        C467   1.505   1_565  S
C463        N464   1.353       .  A
C463        N468   1.384       .  A
C463       C1014   1.470       .  S
N464        C465   1.345       .  A
C465        N466   1.347       .  A
N466        C467   1.358       .  A
C467        N468   1.375       .  A
C469        N470   1.384       .  A
C469        N474   1.351       .  A
C469        C822   1.470       .  S
N470        C471   1.377       .  A
C471        N472   1.356       .  A
C471        C477   1.501   1_655  S
N472        C473   1.347       .  A
C473        N474   1.343       .  A
C475        N476   1.382       .  A
C475        N480   1.354       .  A
C475        C920   1.468       .  S
N476        C477   1.374       .  A
C477        N478   1.358       .  A
N478        C479   1.347       .  A
C479        N480   1.344       .  A
C481        N482   1.354       .  A
C481        N486   1.387       .  A
C481        C690   1.469       .  S
N482        C483   1.342       .  A
C483        N484   1.342       .  A
N484        C485   1.356       .  A
C485        N486   1.376       .  A
C485        C491   1.506   1_565  S
C487        N488   1.353       .  A
C487        N492   1.388       .  A
C487        C886   1.471       .  S
N488        C489   1.341       .  A
C489        N490   1.341       .  A
N490        C491   1.355       .  A
C491        N492   1.378       .  A
C493        N494   1.382       .  A
C493        N498   1.350       .  A
C493        C858   1.465       .  S
N494        C495   1.375       .  A
C495        N496   1.359       .  A
C495        C503   1.503   1_556  S
N496        C497   1.350       .  A
C497        N498   1.342       .  A
C499        N500   1.353       .  A
C499        N504   1.384       .  A
C499        C989   1.473       .  S
N500        C501   1.345       .  A
C501        N502   1.349       .  A
N502        C503   1.357       .  A
C503        N504   1.376       .  A
C505        N506   1.353       .  A
C505        N510   1.385       .  A
C505        C682   1.474       .  S
N506        C507   1.344       .  A
C507        N508   1.348       .  A
N508        C509   1.357       .  A
C509        N510   1.377       .  A
C509        C515   1.506   1_556  S
C511        N512   1.354       .  A
C511        N516   1.384       .  A
C511        C941   1.474       .  S
N512        C513   1.347       .  A
C513        N514   1.349       .  A
N514        C515   1.359       .  A
C515        N516   1.376       .  A
C517        N518   1.382       .  A
C517        N522   1.355       .  A
C517        C966   1.476       .  S
N518        C519   1.375       .  A
C519        N520   1.359       .  A
C519        C525   1.503   1_565  S
N520        C521   1.350       .  A
C521        N522   1.349       .  A
C523        N524   1.383       .  A
C523        N528   1.352       .  A
C523       C1038   1.474       .  S
N524        C525   1.376       .  A
C525        N526   1.357       .  A
N526        C527   1.349       .  A
C527        N528   1.346       .  A
C529        N530   1.352       .  A
C529        N534   1.384       .  A
C529        C978   1.467       .  S
N530        C531   1.342       .  A
C531        N532   1.346       .  A
N532        C533   1.356       .  A
C533        N534   1.376       .  A
C533        C539   1.502   1_655  S
C535        N536   1.352       .  A
C535        N540   1.383       .  A
C535       C1074   1.469       .  S
N536        C537   1.344       .  A
C537        N538   1.348       .  A
N538        C539   1.358       .  A
C539        N540   1.375       .  A
C541        N542   1.385       .  A
C541        N546   1.353       .  A
C541        C894   1.469       .  S
N542        C543   1.376       .  A
C543        N544   1.357       .  A
C543        C549   1.504   1_556  S
N544        C545   1.344       .  A
C545        N546   1.342       .  A
C547        N548   1.386       .  A
C547        N552   1.352       .  A
C547       C1049   1.469       .  S
N548        C549   1.377       .  A
C549        N550   1.355       .  A
N550        C551   1.344       .  A
C551        N552   1.342       .  A
C553        N554   1.352       .  A
C553        N558   1.382       .  A
C553       C1050   1.470       .  S
N554        C555   1.345       .  A
C555        N556   1.348       .  A
N556        C557   1.357       .  A
C557        N558   1.375       .  A
C557        C561   1.500       .  S
C559        N560   1.380       .  A
C559        N564   1.354       .  A
C559        C934   1.472       .  S
N560        C561   1.373       .  A
C561        N562   1.359       .  A
N562        C563   1.350       .  A
C563        N564   1.349       .  A
C565        N566   1.353       .  A
C565        N570   1.383       .  A
C565       C1042   1.470       .  S
N566        C567   1.345       .  A
C567        N568   1.346       .  A
N568        C569   1.357       .  A
C569        N570   1.375       .  A
C569        C573   1.501       .  S
C571        N572   1.383       .  A
C571        N576   1.352       .  A
C571        C990   1.465       .  S
N572        C573   1.374       .  A
C573        N574   1.357       .  A
N574        C575   1.346       .  A
C575        N576   1.343       .  A
C577        N578   1.386       .  A
C577        N582   1.354       .  A
C577        C893   1.476       .  S
N578        C579   1.378       .  A
C579        N580   1.356       .  A
C579        C587   1.505       .  S
N580        C581   1.345       .  A
C581        N582   1.344       .  A
C583        N584   1.351       .  A
C583        N588   1.383       .  A
C583        C834   1.468       .  S
N584        C585   1.344       .  A
C585        N586   1.349       .  A
N586        C587   1.359       .  A
C587        N588   1.375       .  A
C589        N590   1.385       .  A
C589        N594   1.352       .  A
C589        C942   1.471       .  S
N590        C591   1.376       .  A
C591        N592   1.358       .  A
C591        C597   1.505       .  S
N592        C593   1.347       .  A
C593        N594   1.343       .  A
C595        N596   1.384       .  A
C595        N600   1.354       .  A
C595        C812   1.475       .  S
N596        C597   1.376       .  A
C597        N598   1.358       .  A
N598        C599   1.348       .  A
C599        N600   1.346       .  A
C601        N602   1.382       .  A
C601        N606   1.353       .  A
C601        C982   1.471       .  S
N602        C603   1.374       .  A
C603        N604   1.358       .  A
C603        C611   1.501       .  S
N604        C605   1.349       .  A
C605        N606   1.347       .  A
C607        N608   1.352       .  A
C607        N612   1.383       .  A
C607        C778   1.471       .  S
N608        C609   1.344       .  A
C609        N610   1.347       .  A
N610        C611   1.356       .  A
C611        N612   1.375       .  A
C613        N614   1.352       .  A
C613        N618   1.384       .  A
C613       C1016   1.473       .  S
N614        C615   1.345       .  A
C615        N616   1.346       .  A
N616        C617   1.355       .  A
C617        N618   1.376       .  A
C617        C621   1.501       .  S
C619        N620   1.381       .  A
C619        N624   1.355       .  A
C619        C826   1.471       .  S
N620        C621   1.373       .  A
C621        N622   1.359       .  A
N622        C623   1.350       .  A
C623        N624   1.348       .  A
C625        N626   1.351       .  A
C625        N630   1.385       .  A
C625        C968   1.468       .  S
N626        C627   1.343       .  A
C627        N628   1.347       .  A
N628        C629   1.358       .  A
C629        N630   1.376       .  A
C629        C635   1.505       .  S
C631        N632   1.354       .  A
C631        N636   1.385       .  A
C631        C714   1.476       .  S
N632        C633   1.345       .  A
C633        N634   1.347       .  A
N634        C635   1.358       .  A
C635        N636   1.378       .  A
C637        N638   1.383       .  A
C637        N642   1.353       .  A
C637        C860   1.468       .  S
N638        C639   1.374       .  A
C639        N640   1.358       .  A
C639        C647   1.501       .  S
N640        C641   1.347       .  A
C641        N642   1.345       .  A
C643        N644   1.352       .  A
C643        N648   1.384       .  A
C643        C737   1.471       .  S
N644        C645   1.343       .  A
C645        N646   1.347       .  A
N646        C647   1.357       .  A
C647        N648   1.377       .  A
C649        N650   1.354       .  A
C649        N654   1.384       .  A
C649        C786   1.476       .  S
N650        C651   1.347       .  A
C651        N652   1.348       .  A
N652        C653   1.357       .  A
C653        N654   1.376       .  A
C653        C657   1.503       .  S
C655        N656   1.383       .  A
C655        N660   1.353       .  A
C655        C762   1.469       .  S
N656        C657   1.375       .  A
C657        N658   1.358       .  A
N658        C659   1.348       .  A
C659        N660   1.343       .  A
C661        N662   1.386       .  A
C661        N666   1.355       .  A
C661        C689   1.473       .  S
N662        C663   1.377       .  A
C663        N664   1.357       .  A
C663        C671   1.507       .  S
N664        C665   1.346       .  A
C665        N666   1.344       .  A
C667        N668   1.354       .  A
C667        N672   1.387       .  A
C667        C726   1.475       .  S
N668        C669   1.344       .  A
C669        N670   1.344       .  A
N670        C671   1.356       .  A
C671        N672   1.378       .  A
O673       Mg675   2.173       .  S
O673       Mg681   2.184       .  S
O673        C708   1.234       .  S
C674        H713   1.081       .  S
C674        O687   1.233       .  S
C674        O711   1.268       .  A
Mg675       O704   2.184       .  S
Mg675       O719   2.321       .  S
Mg675       O715   2.281       .  S
Mg675       O686   2.302       .  S
O676       Mg718   2.185       .  S
O676       Mg701   2.178       .  S
O676        C697   1.234       .  S
O677        C708   1.269       .  A
O677       Mg701   2.298       .  S
C678        C871   1.472       .  S
C678        O680   1.277       .  A
C678        O692   1.274       .  A
O679        C707   1.267       .  A
O679       Mg681   2.293       .  S
O680       Mg712   2.295       .  S
Mg681       O687   2.178       .  S
Mg681       O695   2.296       .  S
Mg681       O683   2.295       .  S
C682        O720   1.278       .  A
C682        O688   1.274       .  A
O683        C690   1.272       .  A
H684        C697   1.081       .  S
C685        H710   1.081       .  S
C685        O699   1.234       .  S
C685        O700   1.269       .  A
O686        C709   1.269       .  A
O687       Mg701   2.184       .  S
O688       Mg718   2.307       .  S
C689        O702   1.277       .  A
C689        O694   1.275       .  A
C690        O717   1.277       .  A
Mg691       O698   2.187       .  S
Mg691       O699   2.186       .  S
Mg691       O692   2.308       .  S
Mg691       O693   2.297       .  S
Mg691       O720   2.307       .  S
O693        C697   1.268       .  A
O694       Mg701   2.312       .  S
O695        C714   1.276       .  A
O696        C716   1.275       .  A
O696       Mg712   2.316       .  S
O698       Mg712   2.186       .  S
O698        C709   1.234       .  S
O699       Mg718   2.179       .  S
O700       Mg712   2.297       .  S
Mg701       O717   2.297       .  S
O702       Mg718   2.301       .  S
H703        C708   1.081       .  S
O704       Mg712   2.175       .  S
O704        C707   1.233       .  S
H705        C707   1.081       .  S
H706        C709   1.081       .  S
O711       Mg718   2.295       .  S
C714        O719   1.275       .  A
O715        C716   1.275       .  A
O721       Mg723   2.177       .  S
O721       Mg729   2.180       .  S
O721        C756   1.232       .  S
C722        H761   1.081       .  S
C722        O735   1.233       .  S
C722        O759   1.267       .  A
Mg723       O752   2.186       .  S
Mg723       O767   2.313       .  S
Mg723       O763   2.284       .  S
Mg723       O734   2.296       .  S
O724       Mg766   2.188       .  S
O724       Mg749   2.184       .  S
O724        C745   1.234       .  S
O725        C756   1.267       .  A
O725       Mg749   2.297       .  S
C726        O728   1.278       .  A
C726        O740   1.274       .  A
O727        C755   1.270       .  A
O727       Mg729   2.305       .  S
O728       Mg760   2.303       .  S
Mg729       O735   2.166       .  S
Mg729       O743   2.282       .  S
Mg729       O731   2.323       .  S
C730        O768   1.275       .  A
C730        O736   1.272       .  A
O731        C738   1.276       .  A
H732        C745   1.081       .  S
C733        H758   1.081       .  S
C733        O747   1.232       .  S
C733        O748   1.266       .  A
O734        C757   1.268       .  A
O735       Mg749   2.187       .  S
O736       Mg766   2.295       .  S
C737        O750   1.275       .  A
C737        O742   1.274       .  A
C738        O765   1.278       .  A
Mg739       O746   2.167       .  S
Mg739       O747   2.181       .  S
Mg739       O740   2.314       .  S
Mg739       O741   2.301       .  S
Mg739       O768   2.283       .  S
O741        C745   1.269       .  A
O742       Mg749   2.316       .  S
O743        C762   1.275       .  A
O744        C764   1.273       .  A
O744       Mg760   2.302       .  S
O746       Mg760   2.186       .  S
O746        C757   1.234       .  S
O747       Mg766   2.171       .  S
O748       Mg760   2.293       .  S
Mg749       O765   2.302       .  S
O750       Mg766   2.280       .  S
H751        C756   1.081       .  S
O752       Mg760   2.190       .  S
O752        C755   1.234       .  S
H753        C755   1.081       .  S
H754        C757   1.081       .  S
O759       Mg766   2.291       .  S
C762        O767   1.275       .  A
O763        C764   1.275       .  A
O769       Mg771   2.184       .  S
O769       Mg777   2.181       .  S
O769        C804   1.233       .  S
C770        H809   1.081       .  S
C770        O783   1.234       .  S
C770        O807   1.269       .  A
Mg771       O800   2.188       .  S
Mg771       O815   2.312       .  S
Mg771       O811   2.310       .  S
Mg771       O782   2.300       .  S
O772       Mg814   2.184       .  S
O772       Mg797   2.183       .  S
O772        C793   1.234       .  S
O773        C804   1.269       .  A
O773       Mg797   2.301       .  S
C774        O776   1.276       .  A
C774        O788   1.274       .  A
O775        C803   1.270       .  A
O775       Mg777   2.306       .  S
O776       Mg808   2.300       .  S
Mg777       O783   2.173       .  S
Mg777       O791   2.292       .  S
Mg777       O779   2.313       .  S
C778        O816   1.275       .  A
C778        O784   1.275       .  A
O779        C786   1.275       .  A
H780        C793   1.081       .  S
C781        H806   1.081       .  S
C781        O795   1.233       .  S
C781        O796   1.269       .  A
O782        C805   1.268       .  A
O783       Mg797   2.180       .  S
O784       Mg814   2.308       .  S
C785        O798   1.276       .  A
C785        O790   1.273       .  A
C786        O813   1.276       .  A
Mg787       O794   2.179       .  S
Mg787       O795   2.178       .  S
Mg787       O788   2.307       .  S
Mg787       O789   2.303       .  S
Mg787       O816   2.300       .  S
O789        C793   1.269       .  A
O790       Mg797   2.295       .  S
O791        C810   1.275       .  A
O792        C812   1.275       .  A
O792       Mg808   2.311       .  S
O794       Mg808   2.182       .  S
O794        C805   1.233       .  S
O795       Mg814   2.178       .  S
O796       Mg808   2.303       .  S
Mg797       O813   2.310       .  S
O798       Mg814   2.298       .  S
H799        C804   1.081       .  S
O800       Mg808   2.184       .  S
O800        C803   1.234       .  S
H801        C803   1.081       .  S
H802        C805   1.081       .  S
O807       Mg814   2.298       .  S
C810        O815   1.275       .  A
O811        C812   1.277       .  A
O817       Mg819   2.171       .  S
O817       Mg825   2.184       .  S
O817        C852   1.233       .  S
C818        H857   1.081       .  S
C818        O831   1.234       .  S
C818        O855   1.269       .  A
Mg819       O848   2.181       .  S
Mg819       O863   2.287       .  S
Mg819       O859   2.289       .  S
Mg819       O830   2.301       .  S
O820       Mg862   2.178       .  S
O820       Mg845   2.172       .  S
O820        C841   1.233       .  S
O821        C852   1.268       .  A
O821       Mg845   2.297       .  S
C822        O824   1.275       .  A
C822        O836   1.275       .  A
O823        C851   1.269       .  A
O823       Mg825   2.302       .  S
O824       Mg856   2.297       .  S
Mg825       O831   2.173       .  S
Mg825       O839   2.294       .  S
Mg825       O827   2.294       .  S
C826        O864   1.276       .  A
C826        O832   1.274       .  A
O827        C834   1.272       .  A
H828        C841   1.081       .  S
C829        H854   1.081       .  S
C829        O843   1.234       .  S
C829        O844   1.269       .  A
O830        C853   1.268       .  A
O831       Mg845   2.183       .  S
O832       Mg862   2.302       .  S
C833        O846   1.276       .  A
C833        O838   1.273       .  A
C834        O861   1.275       .  A
Mg835       O842   2.178       .  S
Mg835       O843   2.187       .  S
Mg835       O836   2.308       .  S
Mg835       O837   2.297       .  S
Mg835       O864   2.304       .  S
O837        C841   1.268       .  A
O838       Mg845   2.294       .  S
O839        C858   1.274       .  A
O840        C860   1.274       .  A
O840       Mg856   2.304       .  S
O842       Mg856   2.178       .  S
O842        C853   1.233       .  S
O843       Mg862   2.183       .  S
O844       Mg856   2.304       .  S
Mg845       O861   2.298       .  S
O846       Mg862   2.308       .  S
H847        C852   1.081       .  S
O848       Mg856   2.176       .  S
O848        C851   1.234       .  S
H849        C851   1.081       .  S
H850        C853   1.081       .  S
O855       Mg862   2.302       .  S
C858        O863   1.272       .  A
O859        C860   1.273       .  A
C865        N866   1.382       .  A
C865        N870   1.354       .  A
C865        C918   1.469       .  S
N866        C867   1.374       .  A
C867        N868   1.358       .  A
C867        C875   1.500       .  S
N868        C869   1.347       .  A
C869        N870   1.344       .  A
C871        N872   1.354       .  A
C871        N876   1.384       .  A
N872        C873   1.344       .  A
C873        N874   1.344       .  A
N874        C875   1.354       .  A
C875        N876   1.375       .  A
O877       Mg879   2.169       .  S
O877       Mg885   2.182       .  S
O877        C912   1.233       .  S
C878        H917   1.081       .  S
C878        O891   1.232       .  S
C878        O915   1.267       .  A
Mg879       O908   2.185       .  S
Mg879       O923   2.312       .  S
Mg879       O919   2.283       .  S
Mg879       O890   2.299       .  S
O880       Mg922   2.187       .  S
O880       Mg905   2.178       .  S
O880        C901   1.233       .  S
O881        C912   1.268       .  A
O881       Mg905   2.295       .  S
C882       C1027   1.475       .  S
C882        O884   1.277       .  A
C882        O896   1.274       .  A
O883        C911   1.268       .  A
O883       Mg885   2.295       .  S
O884       Mg916   2.299       .  S
Mg885       O891   2.171       .  S
Mg885       O899   2.284       .  S
Mg885       O887   2.304       .  S
C886        O924   1.277       .  A
C886        O892   1.275       .  A
O887        C894   1.273       .  A
H888        C901   1.081       .  S
C889        H914   1.081       .  S
C889        O903   1.234       .  S
C889        O904   1.269       .  A
O890        C913   1.269       .  A
O891       Mg905   2.183       .  S
O892       Mg922   2.313       .  S
C893        O906   1.279       .  A
C893        O898   1.275       .  A
C894        O921   1.277       .  A
Mg895       O902   2.180       .  S
Mg895       O903   2.189       .  S
Mg895       O896   2.312       .  S
Mg895       O897   2.297       .  S
Mg895       O924   2.293       .  S
O897        C901   1.268       .  A
O898       Mg905   2.313       .  S
O899        C918   1.276       .  A
O900        C920   1.274       .  A
O900       Mg916   2.307       .  S
O902       Mg916   2.184       .  S
O902        C913   1.234       .  S
O903       Mg922   2.190       .  S
O904       Mg916   2.301       .  S
Mg905       O921   2.292       .  S
O906       Mg922   2.308       .  S
H907        C912   1.081       .  S
O908       Mg916   2.174       .  S
O908        C911   1.233       .  S
H909        C911   1.081       .  S
H910        C913   1.081       .  S
O915       Mg922   2.294       .  S
C918        O923   1.274       .  A
O919        C920   1.275       .  A
O925       Mg927   2.175       .  S
O925       Mg933   2.184       .  S
O925        C960   1.234       .  S
C926        H965   1.081       .  S
C926        O939   1.234       .  S
C926        O963   1.269       .  A
Mg927       O956   2.180       .  S
Mg927       O971   2.309       .  S
Mg927       O967   2.296       .  S
Mg927       O938   2.306       .  S
O928       Mg970   2.181       .  S
O928       Mg953   2.182       .  S
O928        C949   1.234       .  S
O929        C960   1.269       .  A
O929       Mg953   2.300       .  S
C930        O932   1.276       .  A
C930        O944   1.275       .  A
O931        C959   1.269       .  A
O931       Mg933   2.302       .  S
O932       Mg964   2.306       .  S
Mg933       O939   2.180       .  S
Mg933       O947   2.314       .  S
Mg933       O935   2.307       .  S
C934        O972   1.277       .  A
C934        O940   1.274       .  A
O935        C942   1.275       .  A
H936        C949   1.081       .  S
C937        H962   1.081       .  S
C937        O951   1.233       .  S
C937        O952   1.268       .  A
O938        C961   1.270       .  A
O939       Mg953   2.184       .  S
O940       Mg970   2.297       .  S
C941        O954   1.276       .  A
C941        O946   1.273       .  A
C942        O969   1.276       .  A
Mg943       O950   2.182       .  S
Mg943       O951   2.181       .  S
Mg943       O944   2.309       .  S
Mg943       O945   2.301       .  S
Mg943       O972   2.313       .  S
O945        C949   1.269       .  A
O946       Mg953   2.301       .  S
O947        C966   1.277       .  A
O948        C968   1.274       .  A
O948       Mg964   2.299       .  S
O950       Mg964   2.182       .  S
O950        C961   1.234       .  S
O951       Mg970   2.178       .  S
O952       Mg964   2.299       .  S
Mg953       O969   2.301       .  S
O954       Mg970   2.312       .  S
H955        C960   1.081       .  S
O956       Mg964   2.185       .  S
O956        C959   1.233       .  S
H957        C959   1.081       .  S
H958        C961   1.081       .  S
O963       Mg970   2.300       .  S
C966        O971   1.275       .  A
O967        C968   1.275       .  A
O973       Mg975   2.176       .  S
O973       Mg981   2.182       .  S
O973       C1008   1.234       .  S
C974       H1013   1.081       .  S
C974        O987   1.233       .  S
C974       O1011   1.269       .  A
Mg975      O1004   2.179       .  S
Mg975      O1019   2.294       .  S
Mg975      O1015   2.298       .  S
Mg975       O986   2.302       .  S
O976      Mg1018   2.176       .  S
O976      Mg1001   2.170       .  S
O976        C997   1.233       .  S
O977       C1008   1.269       .  A
O977      Mg1001   2.303       .  S
C978        O980   1.274       .  A
C978        O992   1.274       .  A
O979       C1007   1.268       .  A
O979       Mg981   2.300       .  S
O980      Mg1012   2.289       .  S
Mg981       O987   2.185       .  S
Mg981       O995   2.305       .  S
Mg981       O983   2.299       .  S
C982       O1020   1.276       .  A
C982        O988   1.273       .  A
O983        C990   1.273       .  A
H984        C997   1.081       .  S
C985       H1010   1.081       .  S
C985        O999   1.234       .  S
C985       O1000   1.270       .  A
O986       C1009   1.269       .  A
O987      Mg1001   2.181       .  S
O988      Mg1018   2.297       .  S
C989       O1002   1.276       .  A
C989        O994   1.274       .  A
C990       O1017   1.273       .  A
Mg991       O998   2.187       .  S
Mg991       O999   2.186       .  S
Mg991       O992   2.304       .  S
Mg991       O993   2.299       .  S
Mg991      O1020   2.309       .  S
O993        C997   1.268       .  A
O994      Mg1001   2.306       .  S
O995       C1014   1.276       .  A
O996       C1016   1.276       .  A
O996      Mg1012   2.316       .  S
O998      Mg1012   2.181       .  S
O998       C1009   1.233       .  S
O999      Mg1018   2.180       .  S
O1000     Mg1012   2.305       .  S
Mg1001     O1017   2.284       .  S
O1002     Mg1018   2.307       .  S
H1003      C1008   1.081       .  S
O1004     Mg1012   2.172       .  S
O1004      C1007   1.233       .  S
H1005      C1007   1.081       .  S
H1006      C1009   1.081       .  S
O1011     Mg1018   2.304       .  S
C1014      O1019   1.273       .  A
O1015      C1016   1.274       .  A
C1021      N1022   1.353       .  A
C1021      N1026   1.382       .  A
C1021      C1076   1.467       .  S
N1022      C1023   1.345       .  A
C1023      N1024   1.349       .  A
N1024      C1025   1.360       .  A
C1025      N1026   1.373       .  A
C1025      C1029   1.502       .  S
C1027      N1028   1.386       .  A
C1027      N1032   1.352       .  A
N1028      C1029   1.378       .  A
C1029      N1030   1.354       .  A
N1030      C1031   1.344       .  A
C1031      N1032   1.343       .  A
O1033     Mg1035   2.175       .  S
O1033     Mg1041   2.184       .  S
O1033      C1068   1.233       .  S
C1034      H1073   1.081       .  S
C1034      O1047   1.233       .  S
C1034      O1071   1.268       .  A
Mg1035     O1064   2.186       .  S
Mg1035     O1079   2.298       .  S
Mg1035     O1075   2.297       .  S
Mg1035     O1046   2.298       .  S
O1036     Mg1078   2.182       .  S
O1036     Mg1061   2.180       .  S
O1036      C1057   1.233       .  S
O1037      C1068   1.268       .  A
O1037     Mg1061   2.299       .  S
C1038      O1040   1.276       .  A
C1038      O1052   1.274       .  A
O1039      C1067   1.268       .  A
O1039     Mg1041   2.300       .  S
O1040     Mg1072   2.309       .  S
Mg1041     O1047   2.178       .  S
Mg1041     O1055   2.302       .  S
Mg1041     O1043   2.300       .  S
C1042      O1080   1.275       .  A
C1042      O1048   1.274       .  A
O1043      C1050   1.274       .  A
H1044      C1057   1.081       .  S
C1045      H1070   1.081       .  S
C1045      O1059   1.234       .  S
C1045      O1060   1.269       .  A
O1046      C1069   1.268       .  A
O1047     Mg1061   2.185       .  S
O1048     Mg1078   2.302       .  S
C1049      O1062   1.275       .  A
C1049      O1054   1.274       .  A
C1050      O1077   1.276       .  A
Mg1051     O1058   2.173       .  S
Mg1051     O1059   2.182       .  S
Mg1051     O1052   2.304       .  S
Mg1051     O1053   2.302       .  S
Mg1051     O1080   2.298       .  S
O1053      C1057   1.269       .  A
O1054     Mg1061   2.305       .  S
O1055      C1074   1.276       .  A
O1056      C1076   1.273       .  A
O1056     Mg1072   2.295       .  S
O1058     Mg1072   2.178       .  S
O1058      C1069   1.233       .  S
O1059     Mg1078   2.180       .  S
O1060     Mg1072   2.303       .  S
Mg1061     O1077   2.301       .  S
O1062     Mg1078   2.295       .  S
H1063      C1068   1.081       .  S
O1064     Mg1072   2.178       .  S
O1064      C1067   1.233       .  S
H1065      C1067   1.081       .  S
H1066      C1069   1.081       .  S
O1071     Mg1078   2.301       .  S
C1074      O1079   1.273       .  A
O1075      C1076   1.275       .  A
