geometry optimzed in LAMMPS
_audit_creation_date              2020-11-30 
_audit_creation_method            'lammps2cif' 
_symmetry_space_group_name_H-M    'P1' 
_symmetry_Int_Tables_number       1 
_symmetry_cell_setting            triclinic 
loop_ 
_symmetry_equiv_pos_as_xyz 
  x,y,z 
_cell_length_a                    37.655729460250534 
_cell_length_b                    48.31524195665768 
_cell_length_c                    27.554337407518258 
_cell_angle_alpha                 89.88794146571185 
_cell_angle_beta                  90.00267363140574 
_cell_angle_gamma                 90.28370529917567 
loop_ 
_atom_site_label 
_atom_site_type_symbol 
_atom_site_fract_x 
_atom_site_fract_y 
_atom_site_fract_z 
_atom_site_charge 
N1          N  0.70595736  0.07681929  0.29133130    -0.26590
N2          N  0.68731599  0.09972589  0.29560332    -0.34440
C3          C  0.65783466  0.09420621  0.32137789     0.01750
C4          C  0.65833826  0.06658101  0.33564035     0.07780
C5          C  0.68964514  0.05640938  0.31600031    -0.05320
H6          H  0.63765202  0.10938992  0.32915608     0.08450
H7          H  0.70029199  0.03578561  0.31970870     0.09650
Cu8        Cu  0.70565069  0.13806238  0.27250789     0.44170
Cu9        Cu  0.75142801  0.07402572  0.24962439     0.41990
Cu10       Cu  0.79528415  0.13842774  0.22263501     0.43880
N11         N  0.73437438  0.17376828  0.25719933    -0.33970
N12         N  0.76680971  0.17387799  0.23874928    -0.28230
C13         C  0.77776786  0.20022442  0.23317457    -0.04330
C14         C  0.75118599  0.21746121  0.24959473     0.07890
C15         C  0.72410678  0.20004328  0.26468514     0.01680
H16         H  0.80341238  0.20632381  0.21894129     0.09340
H17         H  0.69877347  0.20597997  0.27985227     0.08410
N18         N  0.81459918  0.10021608  0.20143227    -0.35420
N19         N  0.79675965  0.07691113  0.20756029    -0.27600
C20         C  0.81377511  0.05640027  0.18450802    -0.02840
C21         C  0.84467903  0.06701527  0.16394962     0.05770
C22         C  0.84422336  0.09495197  0.17598676     0.03860
H23         H  0.80394147  0.03537999  0.18258419     0.08970
H24         H  0.86390162  0.11049010  0.16697442     0.07800
O25         O  0.04022531  0.94672570  0.98575536    -0.72240
O26         O  0.96688758  0.98552732  0.06690388    -0.73220
O27         O  0.96516556  0.94750562  0.98819624    -0.61840
O28         O  0.04197285  0.98405323  0.06607608    -0.70250
O29         O  0.04193871  0.01968927  0.01502450    -0.69800
O30         O  0.96627512  0.98200158  0.93497575    -0.61060
O31         O  0.96642059  0.01955670  0.01364563    -0.73570
O32         O  0.04130406  0.98241366  0.93492359    -0.72350
Cu33       Cu  0.00360220  0.96470773  0.02850326     1.04560
Cu34       Cu  0.00405709  0.00215536  0.97289487     1.04330
C35         C  0.05214156  0.95845813  0.94734936     0.93960
C36         C  0.95466175  0.00886181  0.05289436     0.93100
C37         C  0.95373555  0.95873403  0.94927211     0.85240
C38         C  0.05357524  0.00782695  0.05336489     0.91510
N39         N  0.20254026  0.07679547  0.21706026    -0.26590
N40         N  0.18755855  0.10050767  0.20481634    -0.34440
C41         C  0.15882454  0.09529191  0.17721612     0.01750
C42         C  0.15580166  0.06696732  0.17160372     0.07780
C43         C  0.18393216  0.05586942  0.19720467    -0.05320
H44         H  0.14201052  0.11096487  0.16128643     0.08450
H45         H  0.19061619  0.03420289  0.20064906     0.09650
Cu46       Cu  0.20805110  0.13887519  0.22365916     0.44050
Cu47       Cu  0.24801588  0.07383212  0.25928159     0.41990
Cu48       Cu  0.28973199  0.13861938  0.29300395     0.43880
N49         N  0.23429231  0.17446146  0.24575840    -0.33970
N50         N  0.26399239  0.17439323  0.27135388    -0.28230
C51         C  0.27377596  0.20068501  0.28045731    -0.04330
C52         C  0.24910582  0.21807996  0.25937541     0.07890
C53         C  0.22448688  0.20078543  0.23762428     0.01680
H54         H  0.29712612  0.20663790  0.30086513     0.09340
H55         H  0.20102412  0.20682505  0.21766569     0.08410
N56         N  0.30926593  0.10016812  0.31263347    -0.35420
N57         N  0.29376527  0.07648004  0.30106135    -0.27600
C58         C  0.31237894  0.05553548  0.32060727    -0.02840
C59         C  0.34108049  0.06657019  0.34554823     0.05770
C60         C  0.33824653  0.09493406  0.33954546     0.03860
H61         H  0.30531003  0.03388940  0.31732784     0.08970
H62         H  0.35591830  0.11065781  0.35380218     0.07800
N63         N  0.80002217  0.89036316  0.79204799    -0.26590
N64         N  0.81371359  0.86672682  0.80731131    -0.34440
C65         C  0.84193546  0.87215806  0.83571299     0.01750
C66         C  0.84627370  0.90051178  0.83807784     0.07780
C67         C  0.81934362  0.91147366  0.81008051    -0.05320
H68         H  0.85805613  0.85663397  0.85334976     0.08450
H69         H  0.81392687  0.93315281  0.80378439     0.09650
Cu70       Cu  0.79382352  0.82808578  0.78873030     0.44170
Cu71       Cu  0.75519972  0.89288280  0.74843663     0.41990
Cu72       Cu  0.71731959  0.82734425  0.70988886     0.43880
N73         N  0.76988824  0.79206507  0.76392213    -0.33970
N74         N  0.74188830  0.79180112  0.73498401    -0.28230
C75         C  0.73276884  0.76540214  0.72557911    -0.04330
C76         C  0.75619924  0.74825793  0.74974727     0.07890
C77         C  0.77938508  0.76583682  0.77367649     0.01680
H78         H  0.71068902  0.75920599  0.70288527     0.09340
H79         H  0.80148731  0.76004941  0.79656211     0.08410
N80         N  0.69678175  0.86554750  0.69072272    -0.35420
N81         N  0.71024655  0.88947853  0.70520993    -0.27600
C82         C  0.69042320  0.91015742  0.68705435    -0.02840
C83         C  0.66335121  0.89863557  0.65967951     0.05770
C84         C  0.66819981  0.87034758  0.66277106     0.03860
H85         H  0.69552423  0.93194865  0.69295741     0.08970
H86         H  0.65202528  0.85441595  0.64612513     0.07800
O87         O  0.46543669  0.01902563  0.49174887    -0.72240
O88         O  0.54024540  0.97877000  0.56748473    -0.73220
O89         O  0.54060086  0.01771569  0.49130918    -0.61840
O90         O  0.46470337  0.97988937  0.56888672    -0.70250
O91         O  0.46446019  0.94497731  0.51650121    -0.69800
O92         O  0.53736735  0.98482482  0.43611894    -0.61060
O93         O  0.53944876  0.94518014  0.51318404    -0.73570
O94         O  0.46207386  0.98423807  0.44036350    -0.72350
Cu95       Cu  0.50276651  0.00000744  0.53172882     1.04560
Cu96       Cu  0.50084214  0.96362191  0.47466852     1.04330
C97         C  0.45148319  0.00804458  0.45409345     0.93960
C98         C  0.55202512  0.95561273  0.55220637     0.93100
C99         C  0.55083311  0.00763334  0.45092036     0.85240
C100        C  0.45287677  0.95638850  0.55505206     0.91510
N101        N  0.20801580  0.88825321  0.79664132    -0.26590
N102        N  0.19770857  0.86525438  0.81855744    -0.34440
C103        C  0.17007456  0.87097885  0.84770563     0.01750
C104        C  0.16204097  0.89889750  0.84326249     0.07780
C105        C  0.18669251  0.90903222  0.81022140    -0.05320
H106        H  0.15682319  0.85582084  0.87034757     0.08450
H107        H  0.18885199  0.92993237  0.79640275     0.09650
Cu108      Cu  0.21965123  0.82683869  0.80416091     0.44170
Cu109      Cu  0.25145462  0.89087345  0.75093186     0.41990
Cu110      Cu  0.29163364  0.82642309  0.71634195     0.43880
N111        N  0.24273993  0.79107674  0.77737176    -0.33970
N112        N  0.26896390  0.79098512  0.74544831    -0.28230
C113        C  0.27776729  0.76466538  0.73552811    -0.04330
C114        C  0.25590241  0.74737984  0.76228146     0.07890
C115        C  0.23397523  0.76477776  0.78833601     0.01680
H116        H  0.29845275  0.75862235  0.71051330     0.09340
H117        H  0.21323855  0.75882044  0.81348948     0.08410
N118        N  0.31094407  0.86472533  0.69500394    -0.35420
N119        N  0.29670597  0.88838781  0.70868533    -0.27600
C120        C  0.31616547  0.90941542  0.69068070    -0.02840
C121        C  0.34386029  0.89847066  0.66390161     0.05770
C122        C  0.33960002  0.87004172  0.66740242     0.03860
H123        H  0.31066085  0.93106873  0.69696704     0.08970
H124        H  0.35606387  0.85432925  0.65102580     0.07800
N125        N  0.71079777  0.57586315  0.70932393    -0.26590
N126        N  0.69670930  0.59959557  0.69540332    -0.34440
C127        C  0.66782402  0.59437952  0.66823661     0.01750
C128        C  0.66350883  0.56599715  0.66481616     0.07780
C129        C  0.69121359  0.55488555  0.69135867    -0.05320
H130        H  0.65115696  0.61010620  0.65217452     0.08450
H131        H  0.69692617  0.53317789  0.69680817     0.09650
Cu132      Cu  0.71718629  0.63807742  0.71361153     0.44170
Cu133      Cu  0.75592237  0.57324175  0.75209146     0.41990
Cu134      Cu  0.79460850  0.63864449  0.79081821     0.43880
N135        N  0.74203432  0.67402092  0.73693513    -0.33970
N136        N  0.77034170  0.67425067  0.76531145    -0.28230
C137        C  0.77980305  0.70064619  0.77414457    -0.04330
C138        C  0.75629805  0.71781052  0.75014488     0.07890
C139        C  0.73271818  0.70025225  0.72690693     0.01680
H140        H  0.80208549  0.70682850  0.79647643     0.09340
H141        H  0.71035014  0.70605412  0.70452060     0.08410
N142        N  0.81397522  0.60022190  0.81111409    -0.35420
N143        N  0.80011007  0.57643535  0.79659401    -0.27600
C144        C  0.81872558  0.55552811  0.81617427    -0.02840
C145        C  0.84550269  0.56669746  0.84446862     0.05770
C146        C  0.84170717  0.59506900  0.84047064     0.03860
H147        H  0.81288875  0.53380370  0.81076480     0.08970
H148        H  0.85790736  0.61080559  0.85762988     0.07800
N149        N  0.70122265  0.38805487  0.28856262    -0.26590
N150        N  0.69414905  0.36491280  0.31232265    -0.34440
C151        C  0.66921796  0.36991218  0.34599106     0.01750
C152        C  0.65922223  0.39746278  0.34279427     0.07780
C153        C  0.68016787  0.40822944  0.30566244    -0.05320
H154        H  0.65932028  0.35449319  0.37112532     0.08450
H155        H  0.68013885  0.42918365  0.29181916     0.09650
Cu156      Cu  0.71638825  0.32698553  0.29576159     0.44170
Cu157      Cu  0.74133911  0.39149148  0.23698506     0.41990
Cu158      Cu  0.78807334  0.32766127  0.20988246     0.43880
N159        N  0.73907604  0.29134954  0.26827959    -0.33970
N160        N  0.76601174  0.29161057  0.23753811    -0.28230
C161        C  0.77471029  0.26539912  0.22657427    -0.04330
C162        C  0.75183322  0.24785294  0.25118669     0.07890
C163        C  0.72952291  0.26496484  0.27718869     0.01680
H164        H  0.79564392  0.25960284  0.20175928     0.09340
H165        H  0.70801801  0.25874840  0.30091221     0.08410
N166        N  0.80389116  0.36625676  0.18496970    -0.35420
N167        N  0.78682597  0.38952553  0.19430951    -0.27600
C168        C  0.80489736  0.41081073  0.17438223    -0.02840
C169        C  0.83447182  0.40029969  0.15129249     0.05770
C170        C  0.83314478  0.37208017  0.15884445     0.03860
H171        H  0.79765160  0.43236133  0.17772189     0.08970
H172        H  0.85250440  0.35697872  0.14734536     0.07800
N173        N  0.21098198  0.57542205  0.80887435    -0.26590
N174        N  0.19734814  0.59931975  0.82275853    -0.34440
C175        C  0.16911923  0.59445776  0.85143278     0.01750
C176        C  0.16496744  0.56619579  0.85602461     0.07780
C177        C  0.19181703  0.55467175  0.82862418    -0.05320
H178        H  0.15271604  0.61031914  0.86748354     0.08450
H179        H  0.19676586  0.53287985  0.82295352     0.09650
Cu180      Cu  0.21729026  0.63759329  0.80239767     0.44170
Cu181      Cu  0.25460070  0.57225895  0.76301620     0.41990
Cu182      Cu  0.29553599  0.63748078  0.72737474     0.43880
N183        N  0.24199319  0.67332419  0.77794613    -0.33970
N184        N  0.27061094  0.67331341  0.75018218    -0.28230
C185        C  0.27989548  0.69962076  0.74014839    -0.04330
C186        C  0.25602550  0.71696227  0.76292459     0.07890
C187        C  0.23237180  0.69961927  0.78658055     0.01680
H188        H  0.30242456  0.70562191  0.71809486     0.09340
H189        H  0.20976594  0.70560379  0.80831565     0.08410
N190        N  0.31430780  0.59904153  0.70657840    -0.35420
N191        N  0.29903138  0.57529010  0.71850789    -0.27600
C192        C  0.31706592  0.55448126  0.69765993    -0.02840
C193        C  0.34518326  0.56565519  0.67155796     0.05770
C194        C  0.34258783  0.59396958  0.67825510     0.03860
H195        H  0.31003088  0.53282333  0.70094544     0.08970
H196        H  0.35997082  0.60978613  0.66356219     0.07800
O197        O  0.96452152  0.52027356  0.99709263    -0.72240
O198        O  0.03955359  0.48295366  0.07724489    -0.73220
O199        O  0.04008090  0.52145568  0.00022227    -0.61840
O200        O  0.96336164  0.48146921  0.07495117    -0.70250
O201        O  0.96546138  0.44707822  0.02178008    -0.69800
O202        O  0.04036378  0.48762365  0.94576593    -0.61060
O203        O  0.04140349  0.44907672  0.02327389    -0.73570
O204        O  0.96488543  0.48552850  0.94514969    -0.72350
Cu205      Cu  0.00178021  0.50271618  0.03930767     1.04560
Cu206      Cu  0.00313009  0.46610462  0.98227119     1.04330
C207        C  0.95243706  0.50880792  0.95864581     0.93960
C208        C  0.05309288  0.46037173  0.06209732     0.93100
C209        C  0.05229149  0.51074851  0.96133397     0.85240
C210        C  0.95180917  0.45818118  0.05940643     0.91510
O211        O  0.46486606  0.48423231  0.57151972    -0.72240
O212        O  0.53986229  0.44434284  0.49642231    -0.73220
O213        O  0.54057995  0.48427581  0.57180251    -0.61840
O214        O  0.46431116  0.44495290  0.49533125    -0.70250
O215        O  0.46516413  0.47904455  0.44111768    -0.69800
O216        O  0.53997946  0.51818692  0.51817833    -0.61060
O217        O  0.54094963  0.47838057  0.44232511    -0.73570
O218        O  0.46520644  0.51817032  0.51812390    -0.72350
Cu219      Cu  0.50239232  0.46326542  0.53563087     1.04560
Cu220      Cu  0.50286818  0.49957143  0.47800061     1.04330
C221        C  0.45299266  0.50758852  0.55732307     0.93960
C222        C  0.55238630  0.45502518  0.45759832     0.93100
C223        C  0.55232035  0.50775739  0.55719933     0.85240
C224        C  0.45264380  0.45604101  0.45634621     0.91510
N225        N  0.29221322  0.38973660  0.30944567    -0.26590
N226        N  0.30605326  0.36595343  0.32354228    -0.34440
C227        C  0.33456562  0.37106392  0.35153297     0.01750
C228        C  0.33885896  0.39943419  0.35522424     0.07780
C229        C  0.31152864  0.41064145  0.32813063    -0.05320
H230        H  0.35124206  0.35529490  0.36744542     0.08450
H231        H  0.30659852  0.43235783  0.32144248     0.09650
Cu232      Cu  0.28647118  0.32768439  0.30245857     0.44170
Cu233      Cu  0.24883617  0.39253490  0.26355265     0.41990
Cu234      Cu  0.21171129  0.32791899  0.21939612     0.43880
N235        N  0.26261271  0.29212111  0.27573526    -0.33970
N236        N  0.23513459  0.29218856  0.24584953    -0.28230
C237        C  0.22599518  0.26589532  0.23564715    -0.04330
C238        C  0.24894653  0.24849995  0.26009893     0.07890
C239        C  0.27182208  0.26579440  0.28513356     0.01680
H240        H  0.20442722  0.25994194  0.21186504     0.09340
H241        H  0.29353576  0.25975118  0.30850792     0.08410
N242        N  0.19340559  0.36658496  0.19867159    -0.35420
N243        N  0.20664133  0.39008122  0.21555264    -0.27600
C244        C  0.18836658  0.41133651  0.19661666    -0.02840
C245        C  0.16264131  0.40069284  0.16613947     0.05770
C246        C  0.16648863  0.37229403  0.16817181     0.03860
H247        H  0.19326991  0.43292178  0.20470777     0.08970
H248        H  0.15045866  0.35693125  0.14973399     0.07800
C249        C  0.42365009  0.44241474  0.42912586    -0.04630
C250        C  0.38797933  0.44837232  0.44050592    -0.01750
C251        C  0.36017716  0.43478479  0.41564112     0.03240
C252        C  0.36797570  0.41455699  0.38024427    -0.04630
C253        C  0.40376134  0.40909629  0.36822307    -0.01740
C254        C  0.43142709  0.42363182  0.39158865     0.03230
C255        C  0.37990026  0.46887073  0.47726428     0.37880
C256        C  0.41221610  0.38911891  0.33074375     0.37870
C257        C  0.46766962  0.42040236  0.37495941     0.36300
C258        C  0.32358470  0.44124687  0.42731318     0.36300
N259        N  0.49623231  0.41815541  0.36008646    -0.38520
N260        N  0.29440704  0.44654155  0.43647835    -0.38520
N261        N  0.41899773  0.37308741  0.30104013    -0.37970
N262        N  0.37335083  0.48529385  0.50639504    -0.37970
C263        C  0.13528179  0.41650846  0.13955037    -0.04630
C264        C  0.10824740  0.43009845  0.16541128    -0.01750
C265        C  0.08328655  0.44652102  0.14059430     0.03240
C266        C  0.08277592  0.44701260  0.08918992    -0.04630
C267        C  0.11082111  0.43415732  0.06347590    -0.01740
C268        C  0.13720022  0.41928075  0.08870908     0.03230
C269        C  0.10545567  0.42647764  0.21759239     0.37880
C270        C  0.11417045  0.43796768  0.01139763     0.37870
C271        C  0.16701927  0.40760613  0.06257772     0.36300
C272        C  0.05990623  0.46408338  0.16850655     0.36300
N273        N  0.19099339  0.39852456  0.04182862    -0.38520
N274        N  0.04268915  0.47890759  0.19142460    -0.38520
N275        N  0.11702575  0.44128408  0.96996482    -0.37970
N276        N  0.10298508  0.42323689  0.25908363    -0.37970
C277        C  0.13642166  0.55154583  0.88267338    -0.04630
C278        C  0.14250532  0.54155771  0.93006606    -0.01750
C279        C  0.11485633  0.52837749  0.95597992     0.03240
C280        C  0.08106423  0.52504060  0.93443599    -0.04630
C281        C  0.07503791  0.53512698  0.88704182    -0.01740
C282        C  0.10266951  0.54832432  0.86121222     0.03230
C283        C  0.17714616  0.54510013  0.95227632     0.37880
C284        C  0.04005430  0.53298520  0.86545699     0.37870
C285        C  0.09641437  0.55862098  0.81245766     0.36300
C286        C  0.12132189  0.51788225  0.00454978     0.36300
N287        N  0.09148149  0.56682399  0.77356053    -0.38520
N288        N  0.12645590  0.50953344  0.04330491    -0.38520
N289        N  0.01222070  0.53173259  0.84784154    -0.37970
N290        N  0.20479345  0.54796146  0.96996268    -0.37970
C291        C  0.37226701  0.55061957  0.64227951    -0.04630
C292        C  0.38017205  0.55920423  0.59445946    -0.01750
C293        C  0.40620488  0.54534326  0.56682584     0.03240
C294        C  0.42499637  0.52241674  0.58661806    -0.04630
C295        C  0.41663711  0.51385473  0.63488832    -0.01740
C296        C  0.39053099  0.52784150  0.66220878     0.03230
C297        C  0.36062379  0.58191746  0.57270957     0.37880
C298        C  0.43506015  0.49096548  0.65785837     0.37870
C299        C  0.38343312  0.51923653  0.71184332     0.36300
C300        C  0.41273302  0.55486203  0.51759524     0.36300
N301        N  0.37782480  0.51228262  0.75133947    -0.38520
N302        N  0.41777369  0.56268675  0.47845159    -0.38520
N303        N  0.44947711  0.47271492  0.67653973    -0.37970
N304        N  0.34515047  0.60003347  0.55528080    -0.37970
C305        C  0.63206527  0.41215512  0.37295378    -0.04630
C306        C  0.60042873  0.39842850  0.38765781    -0.01750
C307        C  0.57584369  0.41179075  0.41825133     0.03240
C308        C  0.58029121  0.44005937  0.42991620    -0.04630
C309        C  0.61155025  0.45391886  0.41503249    -0.01740
C310        C  0.63780909  0.43983584  0.38821323     0.03230
C311        C  0.59179655  0.37103491  0.36951279     0.37880
C312        C  0.61785429  0.48232204  0.42968064     0.37870
C313        C  0.67134881  0.45371445  0.37857745     0.36300
C314        C  0.54587077  0.39625635  0.43749841     0.36300
N315        N  0.69804834  0.46494950  0.37130143    -0.38520
N316        N  0.52220649  0.38372859  0.45314161    -0.38520
N317        N  0.62341837  0.50493522  0.44117466    -0.37970
N318        N  0.58454028  0.34927025  0.35496785    -0.37970
C319        C  0.86375152  0.41606486  0.12827463    -0.04630
C320        C  0.86225032  0.42281456  0.07855465    -0.01750
C321        C  0.89092422  0.43682304  0.05625652     0.03240
C322        C  0.92128597  0.44425931  0.08370773    -0.04630
C323        C  0.92214317  0.43811723  0.13385590    -0.01740
C324        C  0.89363947  0.42382158  0.15592055     0.03230
C325        C  0.83119206  0.41521172  0.05034504     0.37880
C326        C  0.95256146  0.44572746  0.16297379     0.37870
C327        C  0.89520501  0.41676235  0.20711932     0.36300
C328        C  0.88863213  0.44436143  0.00533421     0.36300
N329        N  0.89649044  0.41106358  0.24789464    -0.38520
N330        N  0.88676796  0.45046316  0.96477664    -0.38520
N331        N  0.97625009  0.45147376  0.18767438    -0.37970
N332        N  0.80636595  0.40914692  0.02793037    -0.37970
C333        C  0.87217842  0.55143721  0.87369534    -0.04630
C334        C  0.89460422  0.53195559  0.85136581    -0.01750
C335        C  0.92002183  0.51742877  0.87900442     0.03240
C336        C  0.92390401  0.52271826  0.92951615    -0.04630
C337        C  0.90031446  0.54168651  0.95193879    -0.01740
C338        C  0.87487005  0.55603367  0.92408227     0.03230
C339        C  0.89245166  0.52754396  0.79931653     0.37880
C340        C  0.90074255  0.54573518  0.00414056     0.37870
C341        C  0.85055260  0.57494041  0.94774996     0.36300
C342        C  0.94209981  0.49723603  0.85456731     0.36300
N343        N  0.83115349  0.58997891  0.96664737    -0.38520
N344        N  0.95942245  0.48107094  0.83475910    -0.38520
N345        N  0.90088280  0.54897836  0.04575102    -0.37970
N346        N  0.89083102  0.52407367  0.75782514    -0.37970
C347        C  0.63543158  0.55089047  0.63749575    -0.04630
C348        C  0.62941336  0.55707777  0.58817805    -0.01750
C349        C  0.60184631  0.54376241  0.56243749     0.03240
C350        C  0.58057019  0.52301814  0.58526051    -0.04630
C351        C  0.58662338  0.51715920  0.63519944    -0.01740
C352        C  0.61390889  0.53096716  0.66092135     0.03230
C353        C  0.65246841  0.57663403  0.56312989     0.37880
C354        C  0.56381616  0.49800975  0.66148338     0.37870
C355        C  0.61893453  0.52536062  0.71225072     0.36300
C356        C  0.59564253  0.55215826  0.51253639     0.36300
N357        N  0.62290072  0.52090322  0.75317353    -0.38520
N358        N  0.59068740  0.55938935  0.47304347    -0.38520
N359        N  0.54565967  0.48286251  0.68275334    -0.37970
N360        N  0.67086128  0.59212210  0.54303401    -0.37970
C361        C  0.42529145  0.94217980  0.58385691    -0.04630
C362        C  0.38962037  0.95055146  0.58018735    -0.01750
C363        C  0.36296750  0.93631322  0.60625035     0.03240
C364        C  0.37200786  0.91385034  0.63692480    -0.04630
C365        C  0.40806722  0.90594203  0.64119326    -0.01740
C366        C  0.43451163  0.91987610  0.61424318     0.03230
C367        C  0.38023191  0.97340231  0.54847448     0.37880
C368        C  0.41835979  0.88410356  0.67448241     0.37870
C369        C  0.47136638  0.91144563  0.61804980     0.36300
C370        C  0.32614876  0.94420314  0.59968258     0.36300
N371        N  0.50073916  0.90470396  0.62098396    -0.38520
N372        N  0.29682487  0.95058821  0.59430240    -0.38520
N373        N  0.42670139  0.86672135  0.70103884    -0.37970
N374        N  0.37265336  0.99157870  0.52316653    -0.37970
C375        C  0.63518703  0.91336977  0.63230956    -0.04630
C376        C  0.61128208  0.93087590  0.65671905    -0.01750
C377        C  0.58384188  0.94424798  0.63094217     0.03240
C378        C  0.58055018  0.94083998  0.57990175    -0.04630
C379        C  0.60495382  0.92331315  0.55561162    -0.01740
C380        C  0.63185869  0.90956905  0.58178858     0.03230
C381        C  0.61422115  0.93448598  0.70886934     0.37880
C382        C  0.60335761  0.91968881  0.50338572     0.37870
C383        C  0.65697465  0.89212260  0.55628093     0.36300
C384        C  0.55829712  0.96058680  0.65784517     0.36300
N385        N  0.67699347  0.87823330  0.53593343    -0.38520
N386        N  0.53796834  0.97353956  0.67949705    -0.38520
N387        N  0.60225961  0.91653168  0.46179134    -0.37970
N388        N  0.61658891  0.93740401  0.75042586    -0.37970
C389        C  0.36880645  0.05136368  0.37338937    -0.04630
C390        C  0.38714355  0.02910383  0.35198115    -0.01750
C391        C  0.41402471  0.01508722  0.37788410     0.03240
C392        C  0.42286347  0.02296962  0.42622798    -0.04630
C393        C  0.40391403  0.04528495  0.44761056    -0.01740
C394        C  0.37724361  0.05928496  0.42132214     0.03230
C395        C  0.37924967  0.02107804  0.30233926     0.37880
C396        C  0.41084602  0.05389157  0.49720108     0.37870
C397        C  0.35756051  0.08138468  0.44457754     0.36300
C398        C  0.43290527  0.99300378  0.35340838     0.36300
N399        N  0.34196137  0.09899920  0.46320992    -0.38520
N400        N  0.44772701  0.97540189  0.33357049    -0.38520
N401        N  0.41619995  0.06094143  0.53666757    -0.37970
N402        N  0.37297853  0.01457940  0.26283655    -0.37970
C403        C  0.92578899  0.94442824  0.92048344    -0.04630
C404        C  0.89545583  0.93324337  0.94385244    -0.01750
C405        C  0.86948479  0.91889070  0.91679518     0.03240
C406        C  0.87338737  0.91587652  0.86621181    -0.04630
C407        C  0.90339015  0.92718235  0.84267194    -0.01740
C408        C  0.92967488  0.94124636  0.86971917     0.03230
C409        C  0.89033885  0.93708371  0.99559139     0.37880
C410        C  0.90758558  0.92373539  0.79069877     0.37870
C411        C  0.96147459  0.95127347  0.84553172     0.36300
C412        C  0.83843681  0.90746159  0.94092857     0.36300
N413        N  0.98692414  0.95916374  0.82632093    -0.38520
N414        N  0.81366542  0.89834174  0.96013289    -0.38520
N415        N  0.91089351  0.92094221  0.74924340    -0.37970
N416        N  0.88611174  0.94011142  0.03683182    -0.37970
C417        C  0.07985239  0.02221495  0.08442976    -0.04630
C418        C  0.06826812  0.03770739  0.12479614    -0.01750
C419        C  0.09312738  0.05216132  0.15369461     0.03240
C420        C  0.12955288  0.05175055  0.14157940    -0.04630
C421        C  0.14108643  0.03602641  0.10151329    -0.01740
C422        C  0.11646731  0.02039373  0.07434767     0.03230
C423        C  0.03088913  0.03800424  0.13755636     0.37880
C424        C  0.17819280  0.03655180  0.08728740     0.37870
C425        C  0.12929391  0.00073452  0.03897881     0.36300
C426        C  0.08140926  0.06663112  0.19685237     0.36300
N427        N  0.14056362  0.98439202  0.01261452    -0.38520
N428        N  0.07214222  0.07799080  0.23151849    -0.38520
N429        N  0.20771117  0.03724989  0.07563363    -0.37970
N430        N  0.00114190  0.03810086  0.14810020    -0.37970
C431        C  0.13306133  0.91460012  0.86796178    -0.04630
C432        C  0.13868677  0.94233084  0.88307480    -0.01750
C433        C  0.11076045  0.95753202  0.90392916     0.03240
C434        C  0.07885156  0.94407484  0.91705616    -0.04630
C435        C  0.07280269  0.91660380  0.90176118    -0.01740
C436        C  0.09920862  0.90231229  0.87561059     0.03230
C437        C  0.17364755  0.95499769  0.88037262     0.37880
C438        C  0.03846134  0.90366108  0.91021670     0.37870
C439        C  0.09063305  0.87552640  0.85486897     0.36300
C440        C  0.11485724  0.98713219  0.91103703     0.36300
N441        N  0.08350037  0.85425797  0.83813487    -0.38520
N442        N  0.11797800  0.01081425  0.91587374    -0.38520
N443        N  0.01099594  0.89345794  0.91674434    -0.37970
N444        N  0.20151665  0.96518256  0.87894567    -0.37970
C445        C  0.63124815  0.05129729  0.36555866    -0.04630
C446        C  0.61267743  0.06493132  0.40324284    -0.01750
C447        C  0.58524877  0.05124795  0.42882225     0.03240
C448        C  0.57842523  0.02262552  0.42125020    -0.04630
C449        C  0.59838503  0.00858991  0.38525611    -0.01740
C450        C  0.62334401  0.02305547  0.35636631     0.03230
C451        C  0.62243169  0.09283418  0.41774240     0.37880
C452        C  0.59398116  0.97903329  0.37764949     0.37870
C453        C  0.63980515  0.00863956  0.31609419     0.36300
C454        C  0.56341663  0.06738669  0.46167152     0.36300
N455        N  0.65269833  0.99683926  0.28415411    -0.38520
N456        N  0.54596153  0.08042491  0.48747094    -0.38520
N457        N  0.59075120  0.95549194  0.37119461    -0.37970
N458        N  0.62998123  0.11502221  0.42987056    -0.37970
C459        C  0.92660677  0.02372095  0.08189780    -0.04630
C460        C  0.91800951  0.05178356  0.07152779    -0.01750
C461        C  0.88998201  0.06507741  0.09609414     0.03240
C462        C  0.87236393  0.05188353  0.13526001    -0.04630
C463        C  0.88189360  0.02435972  0.14724743    -0.01740
C464        C  0.90775997  0.01011224  0.11986631     0.03230
C465        C  0.93841894  0.06788099  0.03661831     0.37880
C466        C  0.86602927  0.01051874  0.18880664     0.37870
C467        C  0.91443143  0.98127103  0.13150529     0.36300
C468        C  0.87854133  0.09207344  0.07903599     0.36300
N469        N  0.91946291  0.95829251  0.14114939    -0.38520
N470        N  0.86962176  0.11352658  0.06492995    -0.38520
N471        N  0.85357005  0.99918567  0.22176119    -0.37970
N472        N  0.95467294  0.08095975  0.00917312    -0.37970
loop_ 
_geom_bond_atom_site_label_1 
_geom_bond_atom_site_label_2 
_geom_bond_distance 
_geom_bond_site_symmetry_2 
_ccdc_geom_bond_type 
N1            N2   1.319       .  A
N1            C5   1.343       .  A
N1           Cu9   2.067       .  S
N2            C3   1.343       .  A
N2           Cu8   2.072       .  S
C3            C4   1.391       .  A
C3            H6   1.081       .  S
C4            C5   1.390       .  A
C4          C445   1.502       .  S
C5            H7   1.081       .  S
Cu8          N11   2.074       .  S
Cu9          N19   2.067       .  S
Cu10         N12   2.074       .  S
Cu10         N18   2.073       .  S
N11          N12   1.323       .  A
N11          C15   1.345       .  A
N12          C13   1.345       .  A
C13          C14   1.382       .  A
C13          H16   1.082       .  S
C14          C15   1.382       .  A
C14         C162   1.469       .  S
C15          H17   1.082       .  S
N18          N19   1.319       .  A
N18          C22   1.343       .  A
N19          C20   1.343       .  A
C20          C21   1.390       .  A
C20          H23   1.081       .  S
C21          C22   1.391       .  A
C21         C462   1.502       .  S
C22          H24   1.081       .  S
O25         Cu33   2.015   1_556  S
O25          C35   1.280       .  A
O26         Cu33   2.015   1_655  S
O26          C36   1.279   1_565  A
O27         Cu33   2.003   1_656  S
O27          C37   1.277       .  A
O28         Cu33   2.006       .  S
O28          C38   1.275   1_565  A
O29         Cu34   2.023   1_554  S
O29          C38   1.279       .  A
O30         Cu34   2.013   1_665  S
O30          C37   1.279       .  A
O31         Cu34   1.998   1_654  S
O31          C36   1.276       .  A
O32         Cu34   1.997   1_565  S
O32          C35   1.275       .  A
Cu33        Cu34   2.369   1_564  S
C35         C434   1.483       .  S
C36         C459   1.510       .  S
C37         C403   1.486       .  S
C38         C417   1.480       .  S
N39          N40   1.323       .  A
N39          C43   1.344       .  A
N39         Cu47   2.076       .  S
N40          C41   1.346       .  A
N40         Cu46   2.071       .  S
C41          C42   1.382       .  A
C41          H44   1.082       .  S
C42          C43   1.382       .  A
C42         C420   1.482       .  S
C43          H45   1.082       .  S
Cu46         N49   2.071       .  S
Cu47         N57   2.075       .  S
Cu48         N50   2.072       .  S
Cu48         N56   2.072       .  S
N49          N50   1.322       .  A
N49          C53   1.345       .  A
N50          C51   1.345       .  A
C51          C52   1.383       .  A
C51          H54   1.082       .  S
C52          C53   1.382       .  A
C52         C238   1.470       .  S
C53          H55   1.082       .  S
N56          N57   1.322       .  A
N56          C60   1.344       .  A
N57          C58   1.345       .  A
C58          C59   1.386       .  A
C58          H61   1.082       .  S
C59          C60   1.385       .  A
C59         C389   1.491       .  S
C60          H62   1.082       .  S
N63          N64   1.323       .  A
N63          C67   1.346       .  A
N63         Cu71   2.076       .  S
N64          C65   1.345       .  A
N64         Cu70   2.073       .  S
C65          C66   1.380       .  A
C65          H68   1.082       .  S
C66          C67   1.381       .  A
C66         C406   1.480       .  S
C67          H69   1.082       .  S
Cu70         N73   2.073       .  S
Cu71         N81   2.076       .  S
Cu72         N74   2.072       .  S
Cu72         N80   2.072       .  S
N73          N74   1.322       .  A
N73          C77   1.345       .  A
N74          C75   1.345       .  A
C75          C76   1.383       .  A
C75          H78   1.082       .  S
C76          C77   1.383       .  A
C76         C138   1.471       .  S
C77          H79   1.082       .  S
N80          N81   1.323       .  A
N80          C84   1.344       .  A
N81          C82   1.346       .  A
C82          C83   1.383       .  A
C82          H85   1.082       .  S
C83          C84   1.382       .  A
C83         C375   1.485       .  S
C84          H86   1.082       .  S
O87         Cu95   2.011       .  S
O87          C97   1.278       .  A
O88         Cu95   2.006   1_565  S
O88          C98   1.278       .  A
O89         Cu95   1.997       .  S
O89          C99   1.276       .  A
O90         Cu95   2.007   1_565  S
O90         C100   1.277       .  A
O91         Cu96   2.000       .  S
O91         C100   1.276       .  A
O92         Cu96   2.013       .  S
O92          C99   1.278   1_565  A
O93         Cu96   2.011       .  S
O93          C98   1.278       .  A
O94         Cu96   2.007       .  S
O94          C97   1.277   1_565  A
Cu95        Cu96   2.362   1_545  S
C97         C392   1.509       .  S
C98         C378   1.500       .  S
C99         C448   1.504       .  S
C100        C361   1.473       .  S
N101        N102   1.320       .  A
N101        C105   1.342       .  A
N101       Cu109   2.068       .  S
N102        C103   1.345       .  A
N102       Cu108   2.074       .  S
C103        C104   1.389       .  A
C103        H106   1.081       .  S
C104        C105   1.387       .  A
C104        C431   1.497       .  S
C105        H107   1.081       .  S
Cu108       N111   2.075       .  S
Cu109       N119   2.068       .  S
Cu110       N112   2.070       .  S
Cu110       N118   2.069       .  S
N111        N112   1.323       .  A
N111        C115   1.345       .  A
N112        C113   1.344       .  A
C113        C114   1.382       .  A
C113        H116   1.082       .  S
C114        C115   1.383       .  A
C114        C186   1.470       .  S
C115        H117   1.082       .  S
N118        N119   1.321       .  A
N118        C122   1.344       .  A
N119        C120   1.344       .  A
C120        C121   1.385       .  A
C120        H123   1.082       .  S
C121        C122   1.385       .  A
C121        C364   1.489       .  S
C122        H124   1.082       .  S
N125        N126   1.322       .  A
N125        C129   1.346       .  A
N125       Cu133   2.072       .  S
N126        C127   1.343       .  A
N126       Cu132   2.072       .  S
C127        C128   1.383       .  A
C127        H130   1.082       .  S
C128        C129   1.384       .  A
C128        C347   1.487       .  S
C129        H131   1.082       .  S
Cu132       N135   2.072       .  S
Cu133       N143   2.072       .  S
Cu134       N136   2.073       .  S
Cu134       N142   2.074       .  S
N135        N136   1.322       .  A
N135        C139   1.345       .  A
N136        C137   1.345       .  A
C137        C138   1.383       .  A
C137        H140   1.082       .  S
C138        C139   1.383       .  A
C139        H141   1.082       .  S
N142        N143   1.323       .  A
N142        C146   1.345       .  A
N143        C144   1.345       .  A
C144        C145   1.383       .  A
C144        H147   1.082       .  S
C145        C146   1.383       .  A
C145        C333   1.485       .  S
C146        H148   1.082       .  S
N149        N150   1.321       .  A
N149        C153   1.345       .  A
N149       Cu157   2.080       .  S
N150        C151   1.343       .  A
N150       Cu156   2.070       .  S
C151        C152   1.388       .  A
C151        H154   1.081       .  S
C152        C153   1.390       .  A
C152        C305   1.500       .  S
C153        H155   1.081       .  S
Cu156       N159   2.071       .  S
Cu157       N167   2.080       .  S
Cu158       N160   2.070       .  S
Cu158       N166   2.071       .  S
N159        N160   1.321       .  A
N159        C163   1.345       .  A
N160        C161   1.345       .  A
C161        C162   1.382       .  A
C161        H164   1.082       .  S
C162        C163   1.383       .  A
C163        H165   1.082       .  S
N166        N167   1.323       .  A
N166        C170   1.344       .  A
N167        C168   1.347       .  A
C168        C169   1.382       .  A
C168        H171   1.082       .  S
C169        C170   1.379       .  A
C169        C319   1.479       .  S
C170        H172   1.082       .  S
N173        N174   1.323       .  A
N173        C177   1.346       .  A
N173       Cu181   2.079       .  S
N174        C175   1.344       .  A
N174       Cu180   2.069       .  S
C175        C176   1.379       .  A
C175        H178   1.082       .  S
C176        C177   1.382       .  A
C176        C277   1.479       .  S
C177        H179   1.082       .  S
Cu180       N183   2.069       .  S
Cu181       N191   2.079       .  S
Cu182       N184   2.072       .  S
Cu182       N190   2.072       .  S
N183        N184   1.322       .  A
N183        C187   1.344       .  A
N184        C185   1.345       .  A
C185        C186   1.383       .  A
C185        H188   1.082       .  S
C186        C187   1.382       .  A
C187        H189   1.082       .  S
N190        N191   1.322       .  A
N190        C194   1.344       .  A
N191        C192   1.346       .  A
C192        C193   1.387       .  A
C192        H195   1.082       .  S
C193        C194   1.385       .  A
C193        C291   1.493       .  S
C194        H196   1.082       .  S
O197       Cu205   2.012   1_656  S
O197        C207   1.279       .  A
O198       Cu205   2.009       .  S
O198        C208   1.277       .  A
O199       Cu205   2.011       .  S
O199        C209   1.277   1_554  A
O200       Cu205   2.023   1_655  S
O200        C210   1.279       .  A
O201       Cu206   2.006   1_654  S
O201        C210   1.277       .  A
O202       Cu206   2.010       .  S
O202        C209   1.277       .  A
O203       Cu206   2.010   1_554  S
O203        C208   1.279       .  A
O204       Cu206   2.003   1_655  S
O204        C207   1.277       .  A
Cu205      Cu206   2.369   1_554  S
C207        C336   1.502       .  S
C208        C266   1.493       .  S
C209        C280   1.480       .  S
C210        C322   1.487       .  S
O211       Cu219   2.005       .  S
O211        C221   1.277       .  A
O212       Cu219   2.003       .  S
O212        C222   1.276       .  A
O213       Cu219   2.020       .  S
O213        C223   1.280       .  A
O214       Cu219   2.016       .  S
O214        C224   1.278       .  A
O215       Cu220   2.006       .  S
O215        C224   1.275       .  A
O216       Cu220   1.995       .  S
O216        C223   1.275       .  A
O217       Cu220   2.022       .  S
O217        C222   1.280       .  A
O218       Cu220   2.014       .  S
O218        C221   1.279       .  A
Cu219      Cu220   2.364       .  S
C221        C294   1.512       .  S
C222        C308   1.489       .  S
C223        C350   1.506       .  S
C224        C249   1.477       .  S
N225        N226   1.322       .  A
N225        C229   1.345       .  A
N225       Cu233   2.070       .  S
N226        C227   1.344       .  A
N226       Cu232   2.071       .  S
C227        C228   1.383       .  A
C227        H230   1.082       .  S
C228        C229   1.383       .  A
C228        C252   1.485       .  S
C229        H231   1.082       .  S
Cu232       N235   2.072       .  S
Cu233       N243   2.070       .  S
Cu234       N236   2.074       .  S
Cu234       N242   2.074       .  S
N235        N236   1.322       .  A
N235        C239   1.345       .  A
N236        C237   1.345       .  A
C237        C238   1.383       .  A
C237        H240   1.082       .  S
C238        C239   1.382       .  A
C239        H241   1.082       .  S
N242        N243   1.323       .  A
N242        C246   1.346       .  A
N243        C244   1.344       .  A
C244        C245   1.380       .  A
C244        H247   1.082       .  S
C245        C246   1.381       .  A
C245        C263   1.479       .  S
C246        H248   1.082       .  S
C249        C250   1.411       .  A
C249        C254   1.409       .  A
C250        C251   1.411       .  A
C250        C255   1.451       .  S
C251        C252   1.414       .  A
C251        C258   1.451       .  S
C252        C253   1.414       .  A
C253        C254   1.410       .  A
C253        C256   1.451       .  S
C254        C257   1.449       .  S
C255        N262   1.157       .  T
C256        N261   1.157       .  T
C257        N259   1.157       .  T
C258        N260   1.157       .  T
C263        C264   1.408       .  A
C263        C268   1.409       .  A
C264        C265   1.409       .  A
C264        C269   1.452       .  S
C265        C266   1.417       .  A
C265        C272   1.448       .  S
C266        C267   1.418       .  A
C267        C268   1.411       .  A
C267        C270   1.452       .  S
C268        C271   1.451       .  S
C269        N276   1.157       .  T
C270        N275   1.157   1_554  T
C271        N273   1.157       .  T
C272        N274   1.157       .  T
C277        C278   1.410       .  A
C277        C282   1.410       .  A
C278        C279   1.411       .  A
C278        C283   1.450       .  S
C279        C280   1.413       .  A
C279        C286   1.451   1_556  S
C280        C281   1.412       .  A
C281        C282   1.410       .  A
C281        C284   1.449       .  S
C282        C285   1.451       .  S
C283        N290   1.157       .  T
C284        N289   1.156       .  T
C285        N287   1.157       .  T
C286        N288   1.157       .  T
C291        C292   1.412       .  A
C291        C296   1.411       .  A
C292        C293   1.413       .  A
C292        C297   1.453       .  S
C293        C294   1.425       .  A
C293        C300   1.452       .  S
C294        C295   1.427       .  A
C295        C296   1.414       .  A
C295        C298   1.452       .  S
C296        C299   1.453       .  S
C297        N304   1.157       .  T
C298        N303   1.158       .  T
C299        N301   1.157       .  T
C300        N302   1.158       .  T
C305        C306   1.419       .  A
C305        C310   1.418       .  A
C306        C307   1.412       .  A
C306        C311   1.451       .  S
C307        C308   1.413       .  A
C307        C314   1.452       .  S
C308        C309   1.412       .  A
C309        C310   1.413       .  A
C309        C312   1.450       .  S
C310        C313   1.451       .  S
C311        N318   1.158       .  T
C312        N317   1.156       .  T
C313        N315   1.158       .  T
C314        N316   1.158       .  T
C319        C320   1.409       .  A
C319        C324   1.409       .  A
C320        C321   1.412       .  A
C320        C325   1.450       .  S
C321        C322   1.416       .  A
C321        C328   1.452       .  S
C322        C323   1.413       .  A
C323        C324   1.411       .  A
C323        C326   1.445       .  S
C324        C327   1.452       .  S
C325        N332   1.157       .  T
C326        N331   1.155       .  T
C327        N329   1.157       .  T
C328        N330   1.157   1_554  T
C333        C334   1.410       .  A
C333        C338   1.410       .  A
C334        C335   1.412       .  A
C334        C339   1.453       .  S
C335        C336   1.423       .  A
C335        C342   1.452       .  S
C336        C337   1.422       .  A
C337        C338   1.411       .  A
C337        C340   1.452   1_556  S
C338        C341   1.452       .  S
C339        N346   1.157       .  T
C340        N345   1.158       .  T
C341        N343   1.157       .  T
C342        N344   1.158       .  T
C347        C348   1.409       .  A
C347        C352   1.411       .  A
C348        C349   1.411       .  A
C348        C353   1.453       .  S
C349        C350   1.425       .  A
C349        C356   1.452       .  S
C350        C351   1.423       .  A
C351        C352   1.414       .  A
C351        C354   1.452       .  S
C352        C355   1.452       .  S
C353        N360   1.157       .  T
C354        N359   1.158       .  T
C355        N357   1.157       .  T
C356        N358   1.158       .  T
C361        C362   1.408       .  A
C361        C366   1.408       .  A
C362        C363   1.410       .  A
C362        C367   1.452       .  S
C363        C364   1.417       .  A
C363        C370   1.451       .  S
C364        C365   1.417       .  A
C365        C366   1.410       .  A
C365        C368   1.451       .  S
C366        C369   1.452       .  S
C367        N374   1.157       .  T
C368        N373   1.157       .  T
C369        N371   1.157       .  T
C370        N372   1.157       .  T
C375        C376   1.410       .  A
C375        C380   1.410       .  A
C376        C377   1.412       .  A
C376        C381   1.452       .  S
C377        C378   1.422       .  A
C377        C384   1.452       .  S
C378        C379   1.421       .  A
C379        C380   1.412       .  A
C379        C382   1.451       .  S
C380        C383   1.452       .  S
C381        N388   1.157       .  T
C382        N387   1.157       .  T
C383        N385   1.157       .  T
C384        N386   1.158       .  T
C389        C390   1.411       .  A
C389        C394   1.412       .  A
C390        C391   1.413       .  A
C390        C395   1.453       .  S
C391        C392   1.425       .  A
C391        C398   1.452   1_545  S
C392        C393   1.424       .  A
C393        C394   1.413       .  A
C393        C396   1.452       .  S
C394        C397   1.453       .  S
C395        N402   1.157       .  T
C396        N401   1.158       .  T
C397        N399   1.157       .  T
C398        N400   1.158       .  T
C403        C404   1.416       .  A
C403        C408   1.415       .  A
C404        C405   1.410       .  A
C404        C409   1.451       .  S
C405        C406   1.409       .  A
C405        C412   1.451       .  S
C406        C407   1.410       .  A
C407        C408   1.411       .  A
C407        C410   1.451       .  S
C408        C411   1.451       .  S
C409        N416   1.157   1_556  T
C410        N415   1.157       .  T
C411        N413   1.157       .  T
C412        N414   1.157       .  T
C417        C418   1.412       .  A
C417        C422   1.410       .  A
C418        C419   1.412       .  A
C418        C423   1.451       .  S
C419        C420   1.412       .  A
C419        C426   1.451       .  S
C420        C421   1.411       .  A
C421        C422   1.409       .  A
C421        C424   1.451       .  S
C422        C425   1.447       .  S
C423        N430   1.157       .  T
C424        N429   1.157       .  T
C425        N427   1.156   1_545  T
C426        N428   1.157       .  T
C431        C432   1.419       .  A
C431        C436   1.419       .  A
C432        C433   1.409       .  A
C432        C437   1.451       .  S
C433        C434   1.410       .  A
C433        C440   1.451       .  S
C434        C435   1.411       .  A
C435        C436   1.412       .  A
C435        C438   1.452       .  S
C436        C439   1.451       .  S
C437        N444   1.158       .  T
C438        N443   1.157       .  T
C439        N441   1.157       .  T
C440        N442   1.158   1_565  T
C445        C446   1.417       .  A
C445        C450   1.418       .  A
C446        C447   1.411       .  A
C446        C451   1.452       .  S
C447        C448   1.421       .  A
C447        C454   1.453       .  S
C448        C449   1.420       .  A
C449        C450   1.413       .  A
C449        C452   1.452   1_545  S
C450        C453   1.452       .  S
C451        N458   1.158       .  T
C452        N457   1.157       .  T
C453        N455   1.158   1_545  T
C454        N456   1.158       .  T
C459        C460   1.424       .  A
C459        C464   1.422       .  A
C460        C461   1.412       .  A
C460        C465   1.453       .  S
C461        C462   1.416       .  A
C461        C468   1.453       .  S
C462        C463   1.417       .  A
C463        C464   1.414       .  A
C463        C466   1.452       .  S
C464        C467   1.452   1_545  S
C465        N472   1.158       .  T
C466        N471   1.158   1_545  T
C467        N469   1.158       .  T
C468        N470   1.158       .  T
