geometry optimzed in LAMMPS
_audit_creation_date              2020-11-30 
_audit_creation_method            'lammps2cif' 
_symmetry_space_group_name_H-M    'P1' 
_symmetry_Int_Tables_number       1 
_symmetry_cell_setting            triclinic 
loop_ 
_symmetry_equiv_pos_as_xyz 
  x,y,z 
_cell_length_a                    44.6278962 
_cell_length_b                    44.74704024792226 
_cell_length_c                    44.69369372838061 
_cell_angle_alpha                 89.88655769419137 
_cell_angle_beta                  89.9956043962224 
_cell_angle_gamma                 90.02901568364884 
loop_ 
_atom_site_label 
_atom_site_type_symbol 
_atom_site_fract_x 
_atom_site_fract_y 
_atom_site_fract_z 
_atom_site_charge 
N1          N  0.98015432  0.26143016  0.25975337    -0.03000
C2          C  0.97535503  0.23190683  0.26464019    -0.00400
C3          C  0.97046532  0.21716444  0.23791519    -0.23300
C4          C  0.97172256  0.23837033  0.21579284    -0.23500
C5          C  0.97740175  0.26524243  0.22978903    -0.00500
H6          H  0.96700669  0.19343137  0.23481960     0.13200
H7          H  0.96943809  0.23457266  0.19199131     0.13300
O8          O  0.99242753  0.44605321  0.41275167    -0.86100
O9          O  0.99697332  0.44796619  0.58269221    -0.86200
O10         O  0.04136266  0.40843723  0.49873473    -0.87900
O11         O  0.94455028  0.41385794  0.49878029    -0.86600
O12         O  0.90928181  0.45132092  0.49960097    -0.86200
O13         O  0.07986396  0.44251998  0.49755412    -0.87600
O14         O  0.99292862  0.41136133  0.54719147    -0.86100
O15         O  0.99208696  0.40976267  0.44904546    -0.85700
Zr16       Zr  0.99433725  0.43539199  0.49755925     2.84300
O17         O  0.96601699  0.46714834  0.52782390    -1.07600
O18         O  0.02580314  0.46342902  0.46619394    -1.08400
C19         C  0.99103878  0.41848435  0.42140460     1.07100
C20         C  0.99481703  0.42033669  0.57470115     1.07000
C21         C  0.06933884  0.41559272  0.49932889     1.10000
C22         C  0.91737727  0.42360994  0.49936793     1.07800
H23         H  0.03909340  0.45156642  0.53922106     0.33300
O24         O  0.02709364  0.46429134  0.52648885    -1.28600
H25         H  0.95131554  0.45480576  0.45542026     0.33000
O26         O  0.96464772  0.46666181  0.46763475    -1.30300
O27         O  0.00000409  0.54416992  0.58167888    -0.86000
O28         O  0.99378351  0.54371524  0.41189085    -0.87500
O29         O  0.08370147  0.49403418  0.54377854    -0.86100
O30         O  0.91328948  0.49806771  0.54776589    -0.86200
O31         O  0.91130930  0.50153067  0.44925158    -0.85900
O32         O  0.08149473  0.48987671  0.44513558    -0.85700
O33         O  0.04899402  0.57826181  0.49271900    -0.86100
O34         O  0.95311485  0.58310324  0.49968410    -0.85500
O35         O  0.08432251  0.54087061  0.49235119    -0.86600
O36         O  0.91478764  0.54898458  0.50031501    -0.85700
O37         O  0.04745606  0.49676826  0.58025616    -0.86100
O38         O  0.04386885  0.49256275  0.41033131    -0.85900
O39         O  0.94773091  0.49851142  0.41312304    -0.85500
O40         O  0.95116491  0.49687425  0.58251150    -0.85900
O41         O  0.00233945  0.58061916  0.54587657    -0.86200
O42         O  0.99500716  0.57988638  0.44811388    -0.87600
Zr43       Zr  0.99867876  0.49593190  0.55668456     2.83100
Zr44       Zr  0.99618108  0.49503120  0.43683312     2.83500
Zr45       Zr  0.05826614  0.49279266  0.49509015     2.84100
Zr46       Zr  0.93632732  0.49865201  0.49814168     2.83400
Zr47       Zr  0.99987090  0.55571939  0.49685264     2.84200
O48         O  0.96788416  0.52678622  0.46734391    -1.08100
O49         O  0.03006709  0.52451887  0.52603565    -1.07600
C50         C  0.00164965  0.57176349  0.57351276     1.07000
C51         C  0.99281325  0.57125770  0.42063983     1.09600
C52         C  0.07487864  0.49579225  0.57132513     1.07200
C53         C  0.92335365  0.49758263  0.57490528     1.07600
C54         C  0.92029992  0.50111773  0.42169942     1.07100
C55         C  0.07177412  0.49047658  0.41779990     1.06700
C56         C  0.07618937  0.56861541  0.49152214     1.07100
C57         C  0.92511200  0.57601449  0.50058665     1.06600
H58         H  0.04064292  0.53625643  0.45239503     0.33300
O59         O  0.02833660  0.52439528  0.46568004    -1.29200
H60         H  0.95715179  0.54025400  0.54071506     0.33300
O61         O  0.96864510  0.52735440  0.52775239    -1.30600
N62         N  0.02344314  0.73102159  0.73078630    -0.03000
C63         C  0.02386119  0.72736130  0.76091136    -0.00400
C64         C  0.03375200  0.75315719  0.77469170    -0.23300
C65         C  0.03906822  0.77360196  0.75237295    -0.23500
C66         C  0.03242453  0.75959091  0.72564494    -0.00500
H67         H  0.03587395  0.75698207  0.79850205     0.13200
H68         H  0.04510793  0.79682032  0.75544782     0.13300
N69         N  0.99238898  0.25971626  0.73383007    -0.03000
C70         C  0.99740285  0.23002125  0.72966198    -0.00400
C71         C  0.99933647  0.21541030  0.75683943    -0.23300
C72         C  0.99551242  0.23666620  0.77855951    -0.23500
C73         C  0.99139068  0.26360078  0.76395925    -0.00500
H74         H  0.00335589  0.19182260  0.76042918     0.13200
H75         H  0.99651118  0.23305896  0.80249230     0.13300
N76         N  0.98407832  0.73164947  0.26248682    -0.03000
C77         C  0.97765368  0.72839504  0.23301542    -0.00400
C78         C  0.97561869  0.75587657  0.21902650    -0.23300
C79         C  0.98042338  0.77694969  0.24060277    -0.23500
C80         C  0.98532284  0.76158662  0.26695005    -0.00500
H81         H  0.97188948  0.76006180  0.19546141     0.13200
H82         H  0.98068762  0.80093766  0.23744103     0.13300
O83         O  0.99698960  0.04875196  0.41145038    -0.86100
O84         O  0.00191532  0.04424534  0.58143363    -0.86200
O85         O  0.95233240  0.08246118  0.49933524    -0.87900
O86         O  0.04919725  0.07982804  0.49558954    -0.86600
O87         O  0.08464428  0.04279291  0.49723098    -0.86200
O88         O  0.91503967  0.04721338  0.49709885    -0.87600
O89         O  0.00226698  0.07982016  0.54449018    -0.86100
O90         O  0.99791307  0.08289488  0.44969136    -0.85700
Zr91       Zr  0.99983877  0.05597213  0.49632935     2.84300
O92         O  0.02942824  0.02505242  0.52623517    -1.07600
O93         O  0.96823112  0.02788378  0.46545211    -1.08400
C94         C  0.99713196  0.07583601  0.42180835     1.07100
C95         C  0.00321968  0.07168312  0.57205870     1.07000
C96         C  0.92453254  0.07452480  0.49900749     1.10000
C97         C  0.07659238  0.07052215  0.49663960     1.07800
H98         H  0.95710209  0.03899098  0.53890061     0.33300
O99         O  0.96907214  0.02619854  0.52629988    -1.28600
H100        H  0.04162434  0.03934729  0.45249613     0.33000
O101        O  0.02894232  0.02662191  0.46455045    -1.30300
O102        O  0.99680980  0.94536199  0.58003990    -0.86000
O103        O  0.99996967  0.94897564  0.40942590    -0.87500
O104        O  0.91356604  0.99786378  0.54345036    -0.86100
O105        O  0.08365757  0.99258998  0.54191717    -0.86200
O106        O  0.08259968  0.99613525  0.44641687    -0.85900
O107        O  0.91251743  0.99919883  0.44785671    -0.85700
O108        O  0.94806567  0.91199015  0.49437244    -0.86100
O109        O  0.04474591  0.91075335  0.49373564    -0.85500
O110        O  0.91219100  0.94842890  0.49495861    -0.86600
O111        O  0.08202711  0.94582760  0.49252898    -0.85700
O112        O  0.94906032  0.99864866  0.58041067    -0.86100
O113        O  0.94722091  0.99846667  0.40999739    -0.85900
O114        O  0.04682054  0.99828724  0.40951596    -0.85500
O115        O  0.04841775  0.99344005  0.57943737    -0.85900
O116        O  0.99690282  0.91091425  0.54232117    -0.86200
O117        O  0.99811774  0.91338333  0.44637487    -0.87600
Zr118      Zr  0.99853990  0.99521816  0.55659703     2.83100
Zr119      Zr  0.99734436  0.99814807  0.43367303     2.83500
Zr120      Zr  0.93802521  0.99733943  0.49548748     2.84100
Zr121      Zr  0.05813145  0.99503176  0.49454278     2.83400
Zr122      Zr  0.99672129  0.93686178  0.49463319     2.84200
O123        O  0.02682149  0.96672768  0.46392496    -1.08100
O124        O  0.96716031  0.96627156  0.52595703    -1.07600
C125        C  0.99667305  0.91808469  0.57020814     1.07000
C126        C  0.00024122  0.92156002  0.41889134     1.09600
C127        C  0.92160170  0.99936866  0.57108546     1.07200
C128        C  0.07568900  0.99260403  0.56958565     1.07600
C129        C  0.07431312  0.99754884  0.41886540     1.07100
C130        C  0.91988149  0.99886348  0.41997177     1.06700
C131        C  0.92047789  0.92061537  0.49438014     1.07100
C132        C  0.07262902  0.91849888  0.49260856     1.06600
H133        H  0.95435858  0.95524370  0.45166560     0.33300
O134        O  0.96710961  0.96749013  0.46407310    -1.29200
H135        H  0.04031008  0.95198412  0.53714277     0.33300
O136        O  0.02795887  0.96515319  0.52525343    -1.30600
N137        N  0.23466555  0.23158549  0.50423014    -0.03000
C138        C  0.22951762  0.26134052  0.50746720    -0.00400
C139        C  0.25608211  0.27720292  0.50686312    -0.23300
C140        C  0.27848317  0.25676200  0.50261225    -0.23500
C141        C  0.26478342  0.22918129  0.50094783    -0.00500
H142        H  0.25874753  0.30117077  0.50872566     0.13200
H143        H  0.30223137  0.26141428  0.50100030     0.13300
N144        N  0.76265947  0.23073781  0.51051855    -0.03000
C145        C  0.76422830  0.26102802  0.51262040    -0.00400
C146        C  0.73612080  0.27291664  0.51776185    -0.23300
C147        C  0.71660300  0.24934934  0.51932824    -0.23500
C148        C  0.73340407  0.22382316  0.51506911    -0.00500
H149        H  0.73042046  0.29633636  0.51976914     0.13200
H150        H  0.69259230  0.25067824  0.52244469     0.13300
N151        N  0.76094332  0.75987829  0.50195843    -0.03000
C152        C  0.73106598  0.76277795  0.49738200    -0.00400
C153        C  0.71668190  0.73580898  0.50210545    -0.23300
C154        C  0.73845533  0.71543579  0.50931947    -0.23500
C155        C  0.76535829  0.73073769  0.50917723    -0.00500
H156        H  0.69288267  0.73145122  0.50043466     0.13200
H157        H  0.73515406  0.69179986  0.51332205     0.13300
N158        N  0.23157406  0.75920260  0.50330429    -0.03000
C159        C  0.22940602  0.72945851  0.49810160    -0.00400
C160        C  0.25698877  0.71580539  0.50075160    -0.23300
C161        C  0.27711082  0.73795091  0.50735494    -0.23500
C162        C  0.26106205  0.76435091  0.50879359    -0.00500
H163        H  0.26193287  0.69231663  0.49781038     0.13200
H164        H  0.30111199  0.73530013  0.50957747     0.13300
N165        N  0.73312673  0.97418816  0.25906627    -0.03000
C166        C  0.76288562  0.96952081  0.26342353    -0.00400
C167        C  0.77735084  0.96707990  0.23614807    -0.23300
C168        C  0.75590412  0.97022910  0.21439956    -0.23500
C169        C  0.72902907  0.97465069  0.22899623    -0.00500
H170        H  0.80120442  0.96489159  0.23240960     0.13200
H171        H  0.75967460  0.97065446  0.19048020     0.13300
O172        O  0.45149157  0.08173008  0.48626551    -0.86100
O173        O  0.44370863  0.91238361  0.49550015    -0.86200
O174        O  0.41236212  0.99610644  0.44230723    -0.87900
O175        O  0.41133048  0.00105698  0.53942639    -0.86600
O176        O  0.44708256  0.00042892  0.57620532    -0.86200
O177        O  0.44887413  0.99524797  0.40625028    -0.87600
O178        O  0.40968316  0.95077942  0.49353814    -0.86100
O179        O  0.41438356  0.04615872  0.48706295    -0.85700
Zr180      Zr  0.43697266  0.99740518  0.49122595     2.84300
O181        O  0.46509121  0.96697380  0.52328034    -1.07600
O182        O  0.46824222  0.02575907  0.46020415    -1.08400
C183        C  0.42373101  0.07333155  0.48558167     1.07100
C184        C  0.41662669  0.92285141  0.49475340     1.07000
C185        C  0.42116170  0.99559817  0.41475111     1.10000
C186        C  0.41960252  0.00176564  0.56712958     1.07800
H187        H  0.45270653  0.95214550  0.45077672     0.33300
O188        O  0.46574110  0.96437249  0.46289730    -1.28600
H189        H  0.45549836  0.04137799  0.53208210     0.33000
O190        O  0.46777387  0.02799230  0.52041147    -1.30300
O191        O  0.54331101  0.90833213  0.49424956    -0.86000
O192        O  0.55052672  0.07777858  0.49052900    -0.87500
O193        O  0.49464717  0.94362738  0.40969201    -0.86100
O194        O  0.49461275  0.95023651  0.57874253    -0.86200
O195        O  0.49765957  0.04686575  0.57456188    -0.85900
O196        O  0.50172145  0.03964409  0.40526092    -0.85700
O197        O  0.58194283  0.99036611  0.44476778    -0.86100
O198        O  0.58074877  0.99552134  0.54274579    -0.85500
O199        O  0.54611990  0.98909320  0.40799430    -0.86600
O200        O  0.54427399  0.99852522  0.57858292    -0.85700
O201        O  0.49405879  0.90800135  0.44685280    -0.86100
O202        O  0.50338352  0.07795285  0.43934248    -0.85900
O203        O  0.49995586  0.08217381  0.53727615    -0.85500
O204        O  0.49369993  0.91166155  0.54493453    -0.85900
O205        O  0.58007046  0.94427001  0.49367098    -0.86200
O206        O  0.58419746  0.03922328  0.49207594    -0.87600
Zr207      Zr  0.49444414  0.93404140  0.49489464     2.83100
Zr208      Zr  0.49978507  0.05594508  0.48939818     2.83500
Zr209      Zr  0.49724626  0.99273236  0.43213237     2.84100
Zr210      Zr  0.49615899  0.99754374  0.55224644     2.83400
Zr211      Zr  0.55678452  0.99275620  0.49332189     2.84200
O212        O  0.52792833  0.02562742  0.52159598    -1.08100
O213        O  0.52588812  0.96245139  0.46392169    -1.07600
C214        C  0.57106164  0.91694639  0.49353869     1.07000
C215        C  0.57757230  0.06723071  0.49134554     1.09600
C216        C  0.49382764  0.91641365  0.41914668     1.07200
C217        C  0.49415014  0.92224698  0.57185908     1.07600
C218        C  0.49881691  0.07407428  0.56505366     1.07100
C219        C  0.50403992  0.06747698  0.41238569     1.06700
C220        C  0.57361476  0.98933724  0.41708211     1.07100
C221        C  0.57204309  0.99757880  0.57029413     1.06600
H222        H  0.54218461  0.03408928  0.44842451     0.33300
O223        O  0.52874191  0.02290303  0.46114247    -1.29200
H224        H  0.53775205  0.95226713  0.53749740     0.33300
O225        O  0.52562342  0.96442771  0.52436231    -1.30600
N226        N  0.26320879  0.98985103  0.72830132    -0.03000
C227        C  0.26888590  0.99330717  0.75783354    -0.00400
C228        C  0.24312120  0.98920165  0.77446143    -0.23300
C229        C  0.22058247  0.98350566  0.75444449    -0.23500
C230        C  0.23348765  0.98396803  0.72632951    -0.00500
H231        H  0.24092378  0.99072242  0.79852543     0.13200
H232        H  0.19710854  0.98049152  0.75973337     0.13300
N233        N  0.73225566  0.02893756  0.72665987    -0.03000
C234        C  0.76188477  0.03483951  0.72317327    -0.00400
C235        C  0.77554128  0.03843616  0.75072948    -0.23300
C236        C  0.75367781  0.03474250  0.77193511    -0.23500
C237        C  0.72753068  0.02889151  0.75658931    -0.00500
H238        H  0.79916949  0.04187448  0.75497725     0.13200
H239        H  0.75665559  0.03525205  0.79596118     0.13300
N240        N  0.26105197  0.98771056  0.25568959    -0.03000
C241        C  0.26481511  0.98260246  0.22605377    -0.00400
C242        C  0.23744783  0.98050223  0.21174952    -0.23300
C243        C  0.21594283  0.98389970  0.23337971    -0.23500
C244        C  0.23096319  0.98800461  0.26005882    -0.00500
H245        H  0.23360197  0.97711643  0.18808878     0.13200
H246        H  0.19192247  0.98310596  0.23013132     0.13300
O247        O  0.58548446  0.00053494  0.04139007    -0.86100
O248        O  0.41439634  0.99588523  0.04215153    -0.86200
O249        O  0.50021377  0.04660179  0.07762185    -0.87900
O250        O  0.50168318  0.94940888  0.07880894    -0.86600
O251        O  0.50014465  0.91302409  0.04275024    -0.86200
O252        O  0.50169905  0.08231087  0.04076246    -0.87600
O253        O  0.45168051  0.99579954  0.07764597    -0.86100
O254        O  0.54866877  0.00045098  0.07729036    -0.85700
Zr255      Zr  0.50010727  0.99785952  0.05296602     2.84300
O256        O  0.46958009  0.96733749  0.02334996    -1.07600
O257        O  0.52999887  0.02836501  0.02245491    -1.08400
C258        C  0.57630389  0.00136909  0.06887339     1.07100
C259        C  0.42393756  0.99535007  0.06951685     1.07000
C260        C  0.50191759  0.07399914  0.06851169     1.10000
C261        C  0.50088066  0.92175751  0.07036498     1.07800
H262        H  0.45680396  0.03986042  0.03548122     0.33300
O263        O  0.46910588  0.02746041  0.02277265    -1.28600
H264        H  0.54376290  0.95581172  0.03573054     0.33000
O265        O  0.53108284  0.96802867  0.02317018    -1.30300
O266        O  0.41431967  0.99935776  0.94338671    -0.86000
O267        O  0.58512965  0.99875481  0.94314552    -0.87500
O268        O  0.45091377  0.08195449  0.99375925    -0.86100
O269        O  0.45255726  0.91219998  0.99263207    -0.86200
O270        O  0.54921584  0.91377603  0.99318623    -0.85900
O271        O  0.54657938  0.08337233  0.98900627    -0.85700
O272        O  0.49962924  0.04551241  0.90663264    -0.86100
O273        O  0.49992089  0.94854656  0.90792808    -0.85500
O274        O  0.49815864  0.08188867  0.94250025    -0.86600
O275        O  0.50186770  0.91274181  0.94465105    -0.85700
O276        O  0.41422747  0.04591538  0.99416604    -0.86100
O277        O  0.58398302  0.04816521  0.99026342    -0.85900
O278        O  0.58576579  0.94995603  0.99081863    -0.85500
O279        O  0.41503707  0.94723603  0.99163996    -0.85900
O280        O  0.45148229  0.99870002  0.90797231    -0.86200
O281        O  0.54781891  0.99677217  0.90783802    -0.87600
Zr282      Zr  0.43857637  0.99690230  0.99283178     2.83100
Zr283      Zr  0.56084892  0.99859745  0.99234361     2.83500
Zr284      Zr  0.49906241  0.05760496  0.99194975     2.84100
Zr285      Zr  0.50048396  0.93761325  0.99346804     2.83400
Zr286      Zr  0.49955649  0.99724661  0.93260929     2.84200
O287        O  0.53044692  0.96775477  0.96283873    -1.08100
O288        O  0.46860640  0.02726503  0.96222554    -1.07600
C289        C  0.42376742  0.99971104  0.91595670     1.07000
C290        C  0.57555352  0.99757845  0.91583218     1.09600
C291        C  0.42340250  0.07335956  0.99468690     1.07200
C292        C  0.42477042  0.91993834  0.99143465     1.07600
C293        C  0.57671311  0.92250404  0.99164263     1.07100
C294        C  0.57429552  0.07537097  0.98858778     1.06700
C295        C  0.49886975  0.07321440  0.91487894     1.07100
C296        C  0.50142405  0.92110098  0.91691754     1.06600
H297        H  0.54187541  0.04044466  0.94901059     0.33300
O298        O  0.52982917  0.02796486  0.96193381    -1.29200
H299        H  0.45724969  0.95426433  0.95026509     0.33300
O300        O  0.46944960  0.96688207  0.96286463    -1.30600
N301        N  0.53680888  0.22881736  0.22838243    -0.03000
C302        C  0.54698415  0.22226753  0.25629773    -0.00400
C303        C  0.55537220  0.24805186  0.27101660    -0.23300
C304        C  0.55032484  0.27129789  0.25159866    -0.23500
C305        C  0.53908037  0.25907614  0.22551873    -0.00500
H306        H  0.56263233  0.24992788  0.29404211     0.13200
H307        H  0.55365945  0.29478625  0.25628577     0.13300
N308        N  0.51225124  0.76009822  0.22864088    -0.03000
C309        C  0.51519385  0.73035653  0.22345654    -0.00400
C310        C  0.51697373  0.71454184  0.24991256    -0.23300
C311        C  0.51453967  0.73506685  0.27243733    -0.23500
C312        C  0.51151768  0.76272478  0.25892461    -0.00500
H313        H  0.51864912  0.69054244  0.25247201     0.13200
H314        H  0.51414781  0.73031280  0.29619216     0.13300
N315        N  0.50654242  0.76080161  0.75816033    -0.03000
C316        C  0.50316543  0.73076763  0.76163732    -0.00400
C317        C  0.50478289  0.71646291  0.73434831    -0.23300
C318        C  0.50960389  0.73812848  0.71328137    -0.23500
C319        C  0.51102992  0.76502138  0.72837079    -0.00500
H320        H  0.50256572  0.69273057  0.73025397     0.13200
H321        H  0.51107363  0.73473006  0.68935814     0.13300
N322        N  0.52295605  0.23166180  0.75476595    -0.03000
C323        C  0.52309686  0.22933541  0.72445072    -0.00400
C324        C  0.52764959  0.25685778  0.71122992    -0.23300
C325        C  0.53026494  0.27709562  0.73401896    -0.23500
C326        C  0.52706688  0.26124354  0.76037142    -0.00500
H327        H  0.52844847  0.26169455  0.68750510     0.13200
H328        H  0.53316240  0.30100227  0.73167103     0.13300
O329        O  0.00167801  0.41292859  0.04618471    -0.86100
O330        O  0.99750719  0.58361786  0.04550523    -0.86200
O331        O  0.04892479  0.49591191  0.08267657    -0.87900
O332        O  0.95135326  0.49829236  0.08219822    -0.86600
O333        O  0.91513203  0.49847328  0.04587940    -0.86200
O334        O  0.08497111  0.49439100  0.04619623    -0.87600
O335        O  0.99817108  0.54676255  0.08141047    -0.86100
O336        O  0.99986364  0.44984634  0.08176054    -0.85700
Zr337      Zr  0.00030754  0.49810645  0.05740347     2.84300
O338        O  0.97000281  0.52835510  0.02743268    -1.07600
O339        O  0.03056387  0.46773539  0.02733211    -1.08400
C340        C  0.00091522  0.42229528  0.07353821     1.07100
C341        C  0.99698382  0.57433968  0.07291176     1.07000
C342        C  0.07646715  0.49376096  0.07388548     1.10000
C343        C  0.92371496  0.49841232  0.07347934     1.07800
H344        H  0.04257506  0.54082811  0.04033709     0.33300
O345        O  0.03025803  0.52869218  0.02741770    -1.28600
H346        H  0.95813156  0.45473711  0.04025303     0.33000
O347        O  0.97066378  0.46702859  0.02763500    -1.30300
O348        O  0.00024815  0.58246513  0.94712261    -0.86000
O349        O  0.00028298  0.41279833  0.94765500    -0.87500
O350        O  0.08477453  0.54632815  0.00002080    -0.86100
O351        O  0.91499875  0.54462828  0.99672008    -0.86200
O352        O  0.91568904  0.44957587  0.99853014    -0.85900
O353        O  0.08588052  0.45085119  0.99539437    -0.85700
O354        O  0.04883803  0.49829571  0.91237354    -0.86100
O355        O  0.95092100  0.49624580  0.91294960    -0.85500
O356        O  0.08533609  0.49992087  0.94828953    -0.86600
O357        O  0.91525435  0.49580854  0.94950446    -0.85700
O358        O  0.04900985  0.58309492  0.00028755    -0.86100
O359        O  0.05073761  0.41342338  0.99588179    -0.85900
O360        O  0.95142226  0.41275387  0.99821010    -0.85500
O361        O  0.94985087  0.58232555  0.99605108    -0.85900
O362        O  0.99879256  0.54528749  0.91178814    -0.86200
O363        O  0.99960844  0.44996053  0.91213721    -0.87600
Zr364      Zr  0.99979824  0.55893364  0.99687374     2.83100
Zr365      Zr  0.00091037  0.43681570  0.99706629     2.83500
Zr366      Zr  0.06034736  0.49833925  0.99718991     2.84100
Zr367      Zr  0.94059664  0.49730795  0.99761842     2.83400
Zr368      Zr  0.00005409  0.49772259  0.93725107     2.84200
O369        O  0.97017948  0.46689318  0.96713545    -1.08100
O370        O  0.03031963  0.52869006  0.96675602    -1.07600
C371        C  0.99910904  0.57290603  0.91977599     1.07000
C372        C  0.99981796  0.42232029  0.92025708     1.09600
C373        C  0.07646745  0.57386415  0.00146946     1.07200
C374        C  0.92255828  0.57238182  0.99590240     1.07600
C375        C  0.92392287  0.42201310  0.99865699     1.07100
C376        C  0.07808958  0.42312778  0.99512930     1.06700
C377        C  0.07654749  0.49947131  0.92066538     1.07100
C378        C  0.92331920  0.49567771  0.92183759     1.06600
H379        H  0.04332359  0.45555646  0.95419760     0.33300
O380        O  0.03075347  0.46762507  0.96692465    -1.29200
H381        H  0.95698212  0.54006148  0.95440219     0.33300
O382        O  0.96977365  0.52806197  0.96701629    -1.30600
N383        N  0.76333055  0.51185363  0.23165787    -0.03000
C384        C  0.76593715  0.51762581  0.26133613    -0.00400
C385        C  0.73803677  0.51746225  0.27480842    -0.23300
C386        C  0.71755948  0.51153845  0.25273821    -0.23500
C387        C  0.73367147  0.50797252  0.22661681    -0.00500
H388        H  0.73320031  0.52034403  0.29835530     0.13200
H389        H  0.69351374  0.50987394  0.25542018     0.13300
N390        N  0.23730394  0.48289871  0.23231190    -0.03000
C391        C  0.26734632  0.48722686  0.22947925    -0.00400
C392        C  0.28110184  0.48464494  0.25709620    -0.23300
C393        C  0.25889602  0.47884403  0.27757731    -0.23500
C394        C  0.23227495  0.47775094  0.26183927    -0.00500
H395        H  0.30480259  0.48664685  0.26182186     0.13200
H396        H  0.26173952  0.47640980  0.30150668     0.13300
N397        N  0.23395040  0.48080617  0.75929028    -0.03000
C398        C  0.26253957  0.47188368  0.76427753    -0.00400
C399        C  0.27733956  0.46738231  0.73751343    -0.23300
C400        C  0.25711387  0.47347056  0.71521726    -0.23500
C401        C  0.23076200  0.48191583  0.72911350    -0.00500
H402        H  0.30059059  0.46118758  0.73455530     0.13200
H403        H  0.26124068  0.47215234  0.69139229     0.13300
N404        N  0.76713788  0.46676037  0.76255335    -0.03000
C405        C  0.77049809  0.46343912  0.73264526    -0.00400
C406        C  0.74522167  0.45043659  0.72037976    -0.23300
C407        C  0.72549300  0.44591803  0.74352810    -0.23500
C408        C  0.73956707  0.45604261  0.76908824    -0.00500
H409        H  0.74113757  0.44586417  0.69696170     0.13200
H410        H  0.70262628  0.43808321  0.74163094     0.13300
N411        N  0.26316701  0.26068228  0.98321638    -0.03000
C412        C  0.23421364  0.26572495  0.97555434    -0.00400
C413        C  0.21957200  0.23919932  0.96952332    -0.23300
C414        C  0.24029404  0.21693174  0.97296002    -0.23500
C415        C  0.26679453  0.23065534  0.98103706    -0.00500
H416        H  0.19617021  0.23634708  0.96385099     0.13200
H417        H  0.23650692  0.19322880  0.96997443     0.13300
O418        O  0.50326566  0.44900803  0.08163344    -0.86100
O419        O  0.50465777  0.44111441  0.91177189    -0.86200
O420        O  0.45238895  0.40940079  0.99856038    -0.87900
O421        O  0.54979783  0.41027514  0.99795101    -0.86600
O422        O  0.58619984  0.44622903  0.99409708    -0.86200
O423        O  0.41552377  0.44493076  0.99767739    -0.87600
O424        O  0.50448641  0.40720291  0.95021958    -0.86100
O425        O  0.50117591  0.41186757  0.04633590    -0.85700
Zr426      Zr  0.50097806  0.43457291  0.99679164     2.84300
O427        O  0.53011861  0.46340979  0.96414952    -1.07600
O428        O  0.47098185  0.46548603  0.02618697    -1.08400
C429        C  0.50231185  0.42120073  0.07363077     1.07100
C430        C  0.50635764  0.41413152  0.92230227     1.07000
C431        C  0.42458983  0.41745342  0.99847504     1.10000
C432        C  0.57741585  0.41876858  0.99670040     1.07800
H433        H  0.45776913  0.44894101  0.95325849     0.33300
O434        O  0.47013534  0.46240245  0.96474982    -1.28600
H435        H  0.54462639  0.45412384  0.03777071     0.33000
O436        O  0.53175773  0.46595591  0.02505993    -1.30300
O437        O  0.49666563  0.54041947  0.90634871    -0.86000
O438        O  0.50302060  0.54732681  0.07646144    -0.87500
O439        O  0.41458970  0.49031814  0.94694245    -0.86100
O440        O  0.58420774  0.49324967  0.94309006    -0.86200
O441        O  0.58656669  0.49777422  0.03981630    -0.85900
O442        O  0.41607111  0.49557083  0.04269186    -0.85700
O443        O  0.45167790  0.57851184  0.99114505    -0.86100
O444        O  0.54905029  0.57927476  0.98872025    -0.85500
O445        O  0.41522397  0.54235859  0.99119593    -0.86600
O446        O  0.58574139  0.54359154  0.99058461    -0.85700
O447        O  0.44942226  0.48856028  0.90916331    -0.86100
O448        O  0.45230136  0.49615007  0.07926927    -0.85900
O449        O  0.55164029  0.49946591  0.07753306    -0.85500
O450        O  0.54804141  0.49208517  0.90653168    -0.85900
O451        O  0.49735059  0.57709443  0.94218030    -0.86200
O452        O  0.50242488  0.58091082  0.03763984    -0.87600
Zr453      Zr  0.49946459  0.49175818  0.93226890     2.83100
Zr454      Zr  0.50166314  0.49700030  0.05476141     2.83500
Zr455      Zr  0.44040530  0.49377156  0.99440157     2.84100
Zr456      Zr  0.56090703  0.49480464  0.99221279     2.83400
Zr457      Zr  0.50039593  0.55395500  0.99088846     2.84200
O458        O  0.53122390  0.52570793  0.02212462    -1.08100
O459        O  0.46971385  0.52282344  0.96217167    -1.07600
C460        C  0.49581599  0.56811136  0.91488489     1.07000
C461        C  0.50372378  0.57420048  0.06563273     1.09600
C462        C  0.42213385  0.48848078  0.91916484     1.07200
C463        C  0.57562645  0.49279346  0.91551320     1.07600
C464        C  0.57889789  0.49939646  0.06758581     1.07100
C465        C  0.42470700  0.49570991  0.07020141     1.06700
C466        C  0.42404491  0.56990012  0.99076161     1.07100
C467        C  0.57684468  0.57105751  0.98939917     1.06600
H468        H  0.45822160  0.53850170  0.03525125     0.33300
O469        O  0.47062307  0.52548227  0.02330435    -1.29200
H470        H  0.54231498  0.53571655  0.94770780     0.33300
O471        O  0.53023240  0.52343678  0.96077001    -1.30600
N472        N  0.73445330  0.73233847  0.97660475    -0.03000
C473        C  0.73196487  0.76246525  0.97860272    -0.00400
C474        C  0.75963674  0.77583668  0.97487773    -0.23300
C475        C  0.77995059  0.75318437  0.97089291    -0.23500
C476        C  0.76398627  0.72674135  0.97211350    -0.00500
H477        H  0.76456931  0.79950592  0.97565154     0.13200
H478        H  0.80396680  0.75563771  0.96856255     0.13300
N479        N  0.26699931  0.72972597  0.01355449    -0.03000
C480        C  0.27085690  0.75960132  0.00955283    -0.00400
C481        C  0.24432394  0.77482242  0.01359189    -0.23300
C482        C  0.22310480  0.75380021  0.02022202    -0.23500
C483        C  0.23742741  0.72641012  0.02018605    -0.00500
H484        H  0.24081502  0.79868126  0.01168910     0.13200
H485        H  0.19944564  0.75790483  0.02359758     0.13300
N486        N  0.73737414  0.25993737  0.00153032    -0.03000
C487        C  0.76713565  0.26372734  0.00605520    -0.00400
C488        C  0.78161529  0.23643743  0.00698130    -0.23300
C489        C  0.75995567  0.21498890  0.00336907    -0.23500
C490        C  0.73311730  0.23000750  0.00035477    -0.00500
H491        H  0.80541877  0.23262239  0.00959232     0.13200
H492        H  0.76335322  0.19104886  0.00288170     0.13300
C493        C  0.60072681  0.39509447  0.99807605    -0.11500
C494        C  0.59721158  0.36912584  0.01587499     0.03900
C495        C  0.61923830  0.34681888  0.01556674    -0.12100
C496        C  0.64547255  0.35010907  0.99855565     0.18800
C497        C  0.64924760  0.37620392  0.98121271    -0.09100
C498        C  0.62700795  0.39830577  0.98103719    -0.02100
H499        H  0.61617794  0.32701177  0.02921316     0.05300
C500        C  0.66895701  0.32653288  0.99972737     0.20800
H501        H  0.63026158  0.41807806  0.96738573     0.10500
C502        C  0.67637853  0.31075217  0.97360119    -0.15400
C503        C  0.69903449  0.28907407  0.97379816     0.03500
C504        C  0.71465337  0.28276668  0.00041690    -0.10800
C505        C  0.70736426  0.29851568  0.02649024    -0.00800
C506        C  0.68446451  0.31993018  0.02646413    -0.06000
H507        H  0.66464391  0.31550899  0.95291564     0.06500
H508        H  0.71930931  0.29373071  0.04703780     0.09900
Br509      Br  0.68496309  0.38334007  0.95836717    -0.05700
Br510      Br  0.56426825  0.36382272  0.04311083    -0.02600
Br511      Br  0.70899800  0.26970094  0.93696017     0.00200
Br512      Br  0.67562575  0.33984940  0.06341160    -0.04100
C513        C  0.40096566  0.59375655  0.99114052    -0.11500
C514        C  0.37476101  0.59270484  0.97340802     0.03900
C515        C  0.35341715  0.61568633  0.97550997    -0.12100
C516        C  0.35758483  0.63973951  0.99524000     0.18800
C517        C  0.38393271  0.64095563  0.01252579    -0.09100
C518        C  0.40539945  0.61834139  0.01013115    -0.02100
H519        H  0.33326436  0.61456767  0.96204619     0.05300
C520        C  0.33362196  0.66246102  0.99897119     0.20800
H521        H  0.42538124  0.61960102  0.02384882     0.10500
C522        C  0.31700121  0.66271823  0.02559380    -0.15400
C523        C  0.29521343  0.68459666  0.03087124     0.03500
C524        C  0.28915882  0.70656260  0.00893007    -0.10800
C525        C  0.30566654  0.70605812  0.98213209    -0.00800
C526        C  0.32782688  0.68441660  0.97710612    -0.06000
H527        H  0.32157140  0.64616846  0.04272803     0.06500
H528        H  0.30134715  0.72271275  0.96507517     0.09900
Br529      Br  0.39151032  0.67292434  0.04005535    -0.05700
Br530      Br  0.36752114  0.56121069  0.94517168    -0.02600
Br531      Br  0.27660721  0.68457664  0.06947503     0.00200
Br532      Br  0.35053314  0.68658607  0.94074111    -0.04100
C533        C  0.60004713  0.59512048  0.98812167    -0.11500
C534        C  0.62839349  0.59250345  0.00218017     0.03900
C535        C  0.64928746  0.61585758  0.00004715    -0.12100
C536        C  0.64260346  0.64233838  0.98454139     0.18800
C537        C  0.61437008  0.64510989  0.97068696    -0.09100
C538        C  0.59350450  0.62173944  0.97257459    -0.02100
H539        H  0.67090606  0.61344038  0.01081598     0.05300
C540        C  0.66551628  0.66652583  0.98281295     0.20800
H541        H  0.57198940  0.62442830  0.96167848     0.10500
C542        C  0.67745184  0.67464575  0.95485525    -0.15400
C543        C  0.69957624  0.69675473  0.95255267     0.03500
C544        C  0.71069071  0.71067329  0.97846293    -0.10800
C545        C  0.69853285  0.70307373  0.00634186    -0.00800
C546        C  0.67607068  0.68125037  0.00869365    -0.06000
H547        H  0.66949231  0.66375315  0.93474031     0.06500
H548        H  0.70669747  0.71410217  0.02628943     0.09900
Br549      Br  0.60274692  0.68079948  0.94981140    -0.05700
Br550      Br  0.63959305  0.55875242  0.02634521    -0.02600
Br551      Br  0.71318677  0.70833584  0.91358359     0.00200
Br552      Br  0.65980209  0.67313325  0.04758547    -0.04100
C553        C  0.28590113  0.28313815  0.98817285    -0.11500
C554        C  0.30182958  0.28517994  0.01536356     0.03900
C555        C  0.32426073  0.30698418  0.01885305    -0.12100
C556        C  0.33083762  0.32717570  0.99564547     0.18800
C557        C  0.31426252  0.32563748  0.96889422    -0.09100
C558        C  0.29199076  0.30390479  0.96541915    -0.02100
H559        H  0.33651590  0.30828146  0.03972994     0.05300
C560        C  0.35535772  0.34940106  0.99904958     0.20800
H561        H  0.27957128  0.30283512  0.94463216     0.10500
C562        C  0.38324243  0.34351414  0.98595372    -0.15400
C563        C  0.40611594  0.36500196  0.98585385     0.03500
C564        C  0.40134113  0.39337454  0.99914090    -0.10800
C565        C  0.37339139  0.39893021  0.01275950    -0.00800
C566        C  0.35062453  0.37721279  0.01290378    -0.06000
H567        H  0.38693313  0.32228147  0.97493674     0.06500
H568        H  0.36914932  0.42029915  0.02328671     0.09900
Br569      Br  0.32122513  0.35296082  0.93652861    -0.05700
Br570      Br  0.29229678  0.26020248  0.04889581    -0.02600
Br571      Br  0.44224778  0.35453901  0.96494096     0.00200
Br572      Br  0.31302144  0.38660554  0.03143311    -0.04100
C573        C  0.72283413  0.46315675  0.79644334    -0.11500
C574        C  0.70944265  0.44064842  0.81380345     0.03900
C575        C  0.68718528  0.44817396  0.83445231    -0.12100
C576        C  0.67697474  0.47780313  0.83696350     0.18800
C577        C  0.69203743  0.50056799  0.82099434    -0.09100
C578        C  0.71509150  0.49307156  0.80126637    -0.02100
H579        H  0.67652435  0.43058315  0.84730755     0.05300
C580        C  0.64972770  0.48393234  0.85498883     0.20800
H581        H  0.72514625  0.51044519  0.78763334     0.10500
C582        C  0.65104385  0.50448512  0.87857949    -0.15400
C583        C  0.62614129  0.50948646  0.89684827     0.03500
C584        C  0.59978776  0.49247107  0.89285935    -0.10800
C585        C  0.59788512  0.47302325  0.86835183    -0.00800
C586        C  0.62241808  0.46898377  0.84922378    -0.06000
H587        H  0.67158301  0.51662776  0.88293008     0.06500
H588        H  0.57757745  0.46031184  0.86453033     0.09900
Br589      Br  0.67990750  0.54168781  0.82201824    -0.05700
Br590      Br  0.71959775  0.39933879  0.80863393    -0.02600
Br591      Br  0.62874814  0.54110682  0.92573746     0.00200
Br592      Br  0.61722407  0.44333273  0.81516587    -0.04100
C593        C  0.39697681  0.48511244  0.89780194    -0.11500
C594        C  0.39601333  0.50008916  0.87001722     0.03900
C595        C  0.37082134  0.49704942  0.85158078    -0.12100
C596        C  0.34626430  0.47944896  0.86036461     0.18800
C597        C  0.34722102  0.46437756  0.88796851    -0.09100
C598        C  0.37233174  0.46738701  0.90641805    -0.02100
H599        H  0.37028286  0.50863393  0.83027459     0.05300
C600        C  0.32049382  0.47637259  0.83976530     0.20800
H601        H  0.37257990  0.45575733  0.92771055     0.10500
C602        C  0.31553389  0.44886540  0.82560686    -0.15400
C603        C  0.29449428  0.44636004  0.80258069     0.03500
C604        C  0.27811848  0.47162919  0.79336877    -0.10800
C605        C  0.28148311  0.49858628  0.80895524    -0.00800
C606        C  0.30253251  0.50111056  0.83203358    -0.06000
H607        H  0.32900619  0.42962289  0.83158220     0.06500
H608        H  0.26911984  0.51820655  0.80194316     0.09900
Br609      Br  0.31444564  0.44022569  0.90182516    -0.05700
Br610      Br  0.42723568  0.52654883  0.85689581    -0.02600
Br611      Br  0.28949539  0.40827063  0.78357185     0.00200
Br612      Br  0.30679508  0.53897663  0.85165220    -0.04100
C613        C  0.40050411  0.49541540  0.09267054    -0.11500
C614        C  0.39944299  0.47400645  0.11581049     0.03900
C615        C  0.37472965  0.47317263  0.13517112    -0.12100
C616        C  0.35088942  0.49339766  0.13179045     0.18800
C617        C  0.35193659  0.51466366  0.10859199    -0.09100
C618        C  0.37647475  0.51538779  0.08915852    -0.02100
H619        H  0.37414641  0.45678591  0.15303839     0.05300
C620        C  0.32639233  0.49352827  0.15413116     0.20800
H621        H  0.37680389  0.53165675  0.07116184     0.10500
C622        C  0.32614078  0.51609890  0.17575203    -0.15400
C623        C  0.30545146  0.51559169  0.19918909     0.03500
C624        C  0.28442117  0.49207530  0.20140461    -0.10800
C625        C  0.28351809  0.47039463  0.17874358    -0.00800
C626        C  0.30435579  0.47097327  0.15519447    -0.06000
H627        H  0.34271386  0.53378908  0.17484046     0.06500
H628        H  0.26763202  0.45213876  0.18017442     0.09900
Br629      Br  0.32011017  0.54277198  0.10229823    -0.05700
Br630      Br  0.43012426  0.44430437  0.12062275    -0.02600
Br631      Br  0.30721663  0.54762886  0.22764493     0.00200
Br632      Br  0.30234303  0.44037837  0.12528401    -0.04100
C633        C  0.71923625  0.50265215  0.19752192    -0.11500
C634        C  0.70024831  0.47782673  0.19373591     0.03900
C635        C  0.67981463  0.47735139  0.17013965    -0.12100
C636        C  0.67829576  0.50123203  0.14991549     0.18800
C637        C  0.69913009  0.52476555  0.15203100    -0.09100
C638        C  0.71945906  0.52540096  0.17589303    -0.02100
H639        H  0.66431354  0.45881135  0.16816940     0.05300
C640        C  0.65358659  0.50181939  0.12807384     0.20800
H641        H  0.73408376  0.54453923  0.17858872     0.10500
C642        C  0.62837861  0.51964537  0.13383867    -0.15400
C643        C  0.60349344  0.51905149  0.11475639     0.03500
C644        C  0.60383425  0.50042744  0.08929464    -0.10800
C645        C  0.62933939  0.48286824  0.08355637    -0.00800
C646        C  0.65394417  0.48327598  0.10281702    -0.06000
H647        H  0.62798499  0.53384687  0.15344507     0.06500
H648        H  0.63001703  0.46843581  0.06412604     0.09900
Br649      Br  0.69978960  0.55673509  0.12340499    -0.05700
Br650      Br  0.70086311  0.44452655  0.22084178    -0.02600
Br651      Br  0.57052687  0.54506874  0.12393269     0.00200
Br652      Br  0.68762616  0.45821448  0.09388530    -0.04100
C653        C  0.77899128  0.69737238  0.97329161    -0.11500
C654        C  0.79823345  0.68862433  0.94992093     0.03900
C655        C  0.81931715  0.66609941  0.95466536    -0.12100
C656        C  0.82161470  0.65193297  0.98252801     0.18800
C657        C  0.80097626  0.65900212  0.00526278    -0.09100
C658        C  0.77978655  0.68167636  0.00053320    -0.02100
H659        H  0.83479339  0.66039159  0.93688872     0.05300
C660        C  0.84669122  0.63099615  0.98751829     0.20800
H661        H  0.76531826  0.68837603  0.01878729     0.10500
C662        C  0.87151636  0.64013788  0.00456841    -0.15400
C663        C  0.89680077  0.62173743  0.00753884     0.03500
C664        C  0.89731147  0.59364892  0.99326201    -0.10800
C665        C  0.87221830  0.58465699  0.97643006    -0.00800
C666        C  0.84718592  0.60301909  0.97342408    -0.06000
H667        H  0.87131824  0.66181802  0.01531473     0.06500
H668        H  0.87215891  0.56324292  0.96518029     0.09900
Br669      Br  0.80173548  0.63885271  0.04318622    -0.05700
Br670      Br  0.79758819  0.70779979  0.91152358    -0.02600
Br671      Br  0.92915579  0.63555315  0.03224462     0.00200
Br672      Br  0.81410497  0.58889280  0.94993338    -0.04100
C673        C  0.78327354  0.29233702  0.00741015    -0.11500
C674        C  0.80133763  0.29905779  0.03232271     0.03900
C675        C  0.82201163  0.32239450  0.03068985    -0.12100
C676        C  0.82534112  0.33890066  0.00425219     0.18800
C677        C  0.80645711  0.33307156  0.97972228    -0.09100
C678        C  0.78532012  0.31000444  0.98153556    -0.02100
H679        H  0.83645251  0.32686230  0.04965388     0.05300
C680        C  0.85009872  0.36056026  0.00218639     0.20800
H681        H  0.77185477  0.30463789  0.96210406     0.10500
C682        C  0.87613690  0.35270760  0.98647439    -0.15400
C683        C  0.90063213  0.37219581  0.98504759     0.03500
C684        C  0.89936504  0.39988435  0.00004222    -0.10800
C685        C  0.87306620  0.40760250  0.01566908    -0.00800
C686        C  0.84853904  0.38828923  0.01668567    -0.06000
H687        H  0.87727574  0.33138393  0.97508744     0.06500
H688        H  0.87147856  0.42887488  0.02710805     0.09900
Br689      Br  0.80995203  0.35510803  0.94302041    -0.05700
Br690      Br  0.79955699  0.27594833  0.06851079    -0.02600
Br691      Br  0.93398152  0.36069505  0.96047407     0.00200
Br692      Br  0.81300253  0.40103508  0.03721573    -0.04100
C693        C  0.22038069  0.69828272  0.02225602    -0.11500
C694        C  0.19949760  0.69415305  0.04563499     0.03900
C695        C  0.17729262  0.67241952  0.04307010    -0.12100
C696        C  0.17572590  0.65446623  0.01759116     0.18800
C697        C  0.19791599  0.65679938  0.99535357    -0.09100
C698        C  0.22013135  0.67873804  0.99776324    -0.02100
H699        H  0.16063921  0.67010377  0.06057212     0.05300
C700        C  0.15009465  0.63421373  0.01415770     0.20800
H701        H  0.23587872  0.68182081  0.97957297     0.10500
C702        C  0.12408549  0.64453686  0.99991122    -0.15400
C703        C  0.09937312  0.62569330  0.99593196     0.03500
C704        C  0.10082807  0.59580746  0.00610948    -0.10800
C705        C  0.12684708  0.58602690  0.02112304    -0.00800
C706        C  0.15122363  0.60500140  0.02531799    -0.06000
H707        H  0.12314933  0.66730141  0.99165287     0.06500
H708        H  0.12828193  0.56346150  0.02984282     0.09900
Br709      Br  0.19751788  0.63154343  0.96073347    -0.05700
Br710      Br  0.19975384  0.71822990  0.08116870    -0.02600
Br711      Br  0.06524278  0.64193895  0.97540613     0.00200
Br712      Br  0.18564584  0.59030361  0.04645473    -0.04100
C713        C  0.10298699  0.40140169  0.99292075    -0.11500
C714        C  0.10249000  0.37329265  0.00731396     0.03900
C715        C  0.12727242  0.35426337  0.00494945    -0.12100
C716        C  0.15271172  0.36280544  0.98857394     0.18800
C717        C  0.15340126  0.39083017  0.97446597    -0.09100
C718        C  0.12873039  0.40982594  0.97669944    -0.02100
H719        H  0.12665154  0.33257886  0.01576655     0.05300
C720        C  0.17725698  0.34120135  0.98447004     0.20800
H721        H  0.12968262  0.43132388  0.96553275     0.10500
C722        C  0.18032969  0.32733427  0.95657041    -0.15400
C723        C  0.20082418  0.30418608  0.95258322     0.03500
C724        C  0.21852231  0.29456026  0.97682413    -0.10800
C725        C  0.21693329  0.30974826  0.00418163    -0.00800
C726        C  0.19636047  0.33297486  0.00816240    -0.06000
H727        H  0.16599527  0.33388338  0.93812105     0.06500
H728        H  0.23042604  0.30240880  0.02296001     0.09900
Br729      Br  0.18782796  0.40421061  0.95241767    -0.05700
Br730      Br  0.06957333  0.36021326  0.03172221    -0.02600
Br731      Br  0.20336883  0.28593750  0.91381699     0.00200
Br732      Br  0.19451007  0.35225071  0.04638798    -0.04100
C733        C  0.89935124  0.49465351  0.89840806    -0.11500
C734        C  0.86815751  0.49567873  0.90508948     0.03900
C735        C  0.84707029  0.49353984  0.88196204    -0.12100
C736        C  0.85603799  0.49054368  0.85211156     0.18800
C737        C  0.88670326  0.49036331  0.84520970    -0.09100
C738        C  0.90795122  0.49221015  0.86812531    -0.02100
H739        H  0.82338968  0.49356774  0.88734393     0.05300
C740        C  0.83319371  0.48474061  0.82886043     0.20800
H741        H  0.93141003  0.49130122  0.86202287     0.10500
C742        C  0.82427854  0.50759364  0.80918720    -0.15400
C743        C  0.80273590  0.50213895  0.78695721     0.03500
C744        C  0.78992869  0.47348762  0.78430948    -0.10800
C745        C  0.79889470  0.45081240  0.80405144    -0.00800
C746        C  0.82035449  0.45617212  0.82610291    -0.06000
H747        H  0.83397963  0.52968851  0.81125867     0.06500
H748        H  0.78914307  0.42873604  0.80210004     0.09900
Br749      Br  0.90056214  0.48636842  0.80479800    -0.05700
Br750      Br  0.85172714  0.49941565  0.94474212    -0.02600
Br751      Br  0.79050270  0.53460756  0.76183248     0.00200
Br752      Br  0.83200541  0.42359804  0.85155342    -0.04100
C753        C  0.10010117  0.49940646  0.89678029    -0.11500
C754        C  0.09445571  0.50893878  0.86698622     0.03900
C755        C  0.11684694  0.50635117  0.84505721    -0.12100
C756        C  0.14522186  0.49473717  0.85195703     0.18800
C757        C  0.15148250  0.48690356  0.88190431    -0.09100
C758        C  0.12904873  0.48896524  0.90378449    -0.02100
H759        H  0.11197315  0.51322858  0.82231428     0.05300
C760        C  0.16779452  0.49090479  0.82761467     0.20800
H761        H  0.13431840  0.48202323  0.92641106     0.10500
C762        C  0.17808226  0.51599748  0.81155753    -0.15400
C763        C  0.19942808  0.51297018  0.78864328     0.03500
C764        C  0.21105817  0.48462560  0.78169422    -0.10800
C765        C  0.20048296  0.45955398  0.79727856    -0.00800
C766        C  0.17863261  0.46236951  0.81959553    -0.06000
H767        H  0.16967177  0.53801760  0.81704708     0.06500
H768        H  0.20896548  0.43761644  0.79158779     0.09900
Br769      Br  0.19064411  0.47420925  0.89438721    -0.05700
Br770      Br  0.05736393  0.52701476  0.85458702    -0.02600
Br771      Br  0.21301497  0.54797830  0.76797475     0.00200
Br772      Br  0.16302399  0.42635904  0.83706831    -0.04100
C773        C  0.09999438  0.49052293  0.09748084    -0.11500
C774        C  0.12623813  0.47325346  0.09313483     0.03900
C775        C  0.14801483  0.47150219  0.11570755    -0.12100
C776        C  0.14417473  0.48614242  0.14315439     0.18800
C777        C  0.11766509  0.50257082  0.14798335    -0.09100
C778        C  0.09594981  0.50462427  0.12534003    -0.02100
H779        H  0.16813309  0.45852704  0.11183394     0.05300
C780        C  0.16841785  0.48470397  0.16603498     0.20800
H781        H  0.07588336  0.51758114  0.12949128     0.10500
C782        C  0.18417147  0.51087564  0.17338511    -0.15400
C783        C  0.20717362  0.51044854  0.19472418     0.03500
C784        C  0.21492775  0.48356149  0.20908148    -0.10800
C785        C  0.19933445  0.45734317  0.20176498    -0.00800
C786        C  0.17639237  0.45766413  0.18029072    -0.06000
H787        H  0.17838254  0.53178944  0.16259697     0.06500
H788        H  0.20498750  0.43662705  0.21298951     0.09900
Br789      Br  0.10974152  0.52189293  0.18547382    -0.05700
Br790      Br  0.13304830  0.44973028  0.05790647    -0.02600
Br791      Br  0.22619161  0.54736178  0.20500562     0.00200
Br792      Br  0.15590452  0.42088972  0.17202897    -0.04100
C793        C  0.89990802  0.49886883  0.09676289    -0.11500
C794        C  0.90257235  0.48281199  0.12388890     0.03900
C795        C  0.87998756  0.48472848  0.14560088    -0.12100
C796        C  0.85397973  0.50165545  0.14059449     0.18800
C797        C  0.85078846  0.51686053  0.11308002    -0.09100
C798        C  0.87364792  0.51548340  0.09160382    -0.02100
H799        H  0.88264157  0.47271010  0.16649650     0.05300
C800        C  0.83084008  0.50368876  0.16452853     0.20800
H801        H  0.87089973  0.52760075  0.07076916     0.10500
C802        C  0.82467026  0.53158947  0.17754471    -0.15400
C803        C  0.80306122  0.53443295  0.20011019     0.03500
C804        C  0.78697002  0.50921353  0.20988141    -0.10800
C805        C  0.79324704  0.48128767  0.19720278    -0.00800
C806        C  0.81525479  0.47825211  0.17503042    -0.06000
H807        H  0.83674511  0.55125389  0.17009863     0.06500
H808        H  0.78092560  0.46180409  0.20469471     0.09900
Br809      Br  0.81516935  0.53883387  0.10318352    -0.05700
Br810      Br  0.93522614  0.45595120  0.13166012    -0.02600
Br811      Br  0.79533904  0.57328419  0.21622174     0.00200
Br812      Br  0.82259082  0.43899020  0.15948746    -0.04100
C813        C  0.51050054  0.38925030  0.90057803    -0.11500
C814        C  0.52165732  0.36063417  0.90893838     0.03900
C815        C  0.52438975  0.33810148  0.88743175    -0.12100
C816        C  0.51662841  0.34332490  0.85758558     0.18800
C817        C  0.50613462  0.37168941  0.84902636    -0.09100
C818        C  0.50314701  0.39426199  0.87036469    -0.02100
H819        H  0.53297396  0.31639145  0.89394847     0.05300
C820        C  0.52040295  0.31917542  0.83547308     0.20800
H821        H  0.49474557  0.41581586  0.86318182     0.10500
C822        C  0.49560777  0.30175792  0.82726749    -0.15400
C823        C  0.49789027  0.28067224  0.80426092     0.03500
C824        C  0.52549398  0.27647339  0.78955216    -0.10800
C825        C  0.55049815  0.29319820  0.79862766    -0.00800
C826        C  0.54814914  0.31440255  0.82139637    -0.06000
H827        H  0.47410863  0.30558405  0.83784559     0.06500
H828        H  0.57155218  0.29092994  0.78676742     0.09900
Br829      Br  0.49595034  0.38082039  0.80834842    -0.05700
Br830      Br  0.53525445  0.35042050  0.94851691    -0.02600
Br831      Br  0.46188207  0.26129179  0.79120237     0.00200
Br832      Br  0.58271048  0.33808694  0.83082939    -0.04100
C833        C  0.49356573  0.59195976  0.89200841    -0.11500
C834        C  0.47623565  0.61797666  0.89708849     0.03900
C835        C  0.47730739  0.64170169  0.87682846    -0.12100
C836        C  0.49539893  0.64027916  0.85137323     0.18800
C837        C  0.51218335  0.61421370  0.84574555    -0.09100
C838        C  0.51099515  0.59019948  0.86590930    -0.02100
H839        H  0.46401268  0.66152252  0.88101066     0.05300
C840        C  0.49585172  0.66612726  0.83080176     0.20800
H841        H  0.52453819  0.57056165  0.86171260     0.10500
C842        C  0.52078959  0.68524172  0.83031171    -0.15400
C843        C  0.52239664  0.70892218  0.80979810     0.03500
C844        C  0.49866370  0.71376298  0.78958674    -0.10800
C845        C  0.47309358  0.69552917  0.79132369    -0.00800
C846        C  0.47148777  0.67194662  0.81174221    -0.06000
H847        H  0.53947664  0.68106141  0.84521321     0.06500
H848        H  0.45504051  0.69850497  0.77537674     0.09900
Br849      Br  0.53707894  0.61053232  0.81097412    -0.05700
Br850      Br  0.44988826  0.62259463  0.93071697    -0.02600
Br851      Br  0.55873080  0.73169053  0.80809050     0.00200
Br852      Br  0.43666389  0.64675988  0.81107916    -0.04100
C853        C  0.51347929  0.71525339  0.19438807    -0.11500
C854        C  0.48562341  0.70904635  0.18102690     0.03900
C855        C  0.48399482  0.68842119  0.15759763    -0.12100
C856        C  0.50983031  0.67355584  0.14763136     0.18800
C857        C  0.53786416  0.68104546  0.15999704    -0.09100
C858        C  0.53933806  0.70121847  0.18363712    -0.02100
H859        H  0.46234797  0.68276305  0.14820204     0.05300
C860        C  0.50701773  0.64848820  0.12640851     0.20800
H861        H  0.56062990  0.70481956  0.19468289     0.10500
C862        C  0.52094749  0.65053775  0.09846144    -0.15400
C863        C  0.52116075  0.62625754  0.07893952     0.03500
C864        C  0.50584808  0.59959739  0.08667240    -0.10800
C865        C  0.49183277  0.59763918  0.11473649    -0.00800
C866        C  0.49256653  0.62169356  0.13466894    -0.06000
H867        H  0.53270853  0.67082826  0.09228315     0.06500
H868        H  0.48029084  0.57733531  0.12123725     0.09900
Br869      Br  0.57455947  0.66258516  0.14734609    -0.05700
Br870      Br  0.44893985  0.72503465  0.19663990    -0.02600
Br871      Br  0.54542717  0.63033595  0.04365341     0.00200
Br872      Br  0.47499651  0.61629046  0.17352483    -0.04100
C873        C  0.52883069  0.27820854  0.20030843    -0.11500
C874        C  0.54410419  0.27939061  0.17272046     0.03900
C875        C  0.53785609  0.30246282  0.15224780    -0.12100
C876        C  0.51700251  0.32494300  0.15914272     0.18800
C877        C  0.50135703  0.32346036  0.18637699    -0.09100
C878        C  0.50725441  0.30025878  0.20658827    -0.02100
H879        H  0.55021053  0.30359105  0.13141079     0.05300
C880        C  0.51247473  0.35035643  0.13823600     0.20800
H881        H  0.49586320  0.30016342  0.22800236     0.10500
C882        C  0.49105252  0.34793534  0.11546322    -0.15400
C883        C  0.48611575  0.37155430  0.09542452     0.03500
C884        C  0.50360441  0.39784297  0.09724289    -0.10800
C885        C  0.52411237  0.40072981  0.12091369    -0.00800
C886        C  0.52834558  0.37740763  0.14151822    -0.06000
H887        H  0.47776144  0.32775802  0.11359397     0.06500
H888        H  0.53734920  0.42091668  0.12304170     0.09900
Br889      Br  0.47305841  0.35375997  0.19747171    -0.05700
Br890      Br  0.57606089  0.25238500  0.16346444    -0.02600
Br891      Br  0.45350852  0.36770190  0.06766143     0.00200
Br892      Br  0.55564474  0.38357358  0.17407003    -0.04100
C893        C  0.59657749  0.09951611  0.98669503    -0.11500
C894        C  0.59225711  0.12466491  0.96800933     0.03900
C895        C  0.61217621  0.14867852  0.96948018    -0.12100
C896        C  0.63710398  0.14752255  0.98842682     0.18800
C897        C  0.64249548  0.12166029  0.00559195    -0.09100
C898        C  0.62208972  0.09805928  0.00490298    -0.02100
H899        H  0.60856238  0.16808745  0.95539906     0.05300
C900        C  0.65810471  0.17283358  0.98929419     0.20800
H901        H  0.62600452  0.07865490  0.01890550     0.10500
C902        C  0.66088234  0.18942633  0.01575920    -0.15400
C903        C  0.68410133  0.21010272  0.01913852     0.03500
C904        C  0.70455662  0.21451331  0.99559007    -0.10800
C905        C  0.70072508  0.19908776  0.96861525    -0.00800
C906        C  0.67750751  0.17856307  0.96517936    -0.06000
H907        H  0.64599233  0.18500282  0.03440495     0.06500
H908        H  0.71682201  0.20190504  0.95067693     0.09900
Br909      Br  0.67808286  0.11699435  0.02923833    -0.05700
Br910      Br  0.56134348  0.12642219  0.93820627    -0.02600
Br911      Br  0.68904624  0.22879273  0.05739583     0.00200
Br912      Br  0.67505020  0.15693025  0.92823181    -0.04100
C913        C  0.40255149  0.89534870  0.99014618    -0.11500
C914        C  0.40872564  0.86807046  0.97527590     0.03900
C915        C  0.38819627  0.84452470  0.97671379    -0.12100
C916        C  0.36143980  0.84744610  0.99268434     0.18800
C917        C  0.35473209  0.87477644  0.00675311    -0.09100
C918        C  0.37513121  0.89850066  0.00524849    -0.02100
H919        H  0.39326734  0.82364573  0.96556498     0.05300
C920        C  0.34118751  0.82147084  0.99513634     0.20800
H921        H  0.36991198  0.91916539  0.01671080     0.10500
C922        C  0.33980252  0.80566704  0.02224210    -0.15400
C923        C  0.31884158  0.78277078  0.02632062     0.03500
C924        C  0.29897051  0.77547342  0.00304368    -0.10800
C925        C  0.30156844  0.79009530  0.97537106    -0.00800
C926        C  0.32265304  0.81283270  0.97119147    -0.06000
H927        H  0.35426258  0.81198958  0.04064653     0.06500
H928        H  0.28590692  0.78503294  0.95755624     0.09900
Br929      Br  0.31809740  0.88061552  0.02843069    -0.05700
Br930      Br  0.44413694  0.86141946  0.95173272    -0.02600
Br931      Br  0.31597201  0.76431278  0.06495606     0.00200
Br932      Br  0.32360806  0.83306415  0.93331992    -0.04100
C933        C  0.70445123  0.77972362  0.98455612    -0.11500
C934        C  0.70304513  0.79880993  0.00953836     0.03900
C935        C  0.68076882  0.82061257  0.01127275    -0.12100
C936        C  0.65928819  0.82356457  0.98858391     0.18800
C937        C  0.65956390  0.80326597  0.96443060    -0.09100
C938        C  0.68212061  0.78153360  0.96256838    -0.02100
H939        H  0.68078983  0.83597531  0.02998047     0.05300
C940        C  0.63815057  0.84907584  0.98972674     0.20800
H941        H  0.68311046  0.76710224  0.94317040     0.10500
C942        C  0.63909252  0.87085746  0.96701676    -0.15400
C943        C  0.61971919  0.89544539  0.96751748     0.03500
C944        C  0.59931680  0.89868485  0.99129856    -0.10800
C945        C  0.59864239  0.87721905  0.01416830    -0.00800
C946        C  0.61790735  0.85265534  0.01366901    -0.06000
H947        H  0.65476667  0.86853189  0.94865791     0.06500
H948        H  0.58275571  0.87942224  0.03237852     0.09900
Br949      Br  0.63003199  0.80477149  0.93323443    -0.05700
Br950      Br  0.73160737  0.79643734  0.04155774    -0.02600
Br951      Br  0.62024945  0.92253883  0.93414491     0.00200
Br952      Br  0.61463231  0.82413765  0.04562085    -0.04100
C953        C  0.40083578  0.09718573  0.99569638    -0.11500
C954        C  0.40496398  0.12294144  0.01349852     0.03900
C955        C  0.38477102  0.14661597  0.01127807    -0.12100
C956        C  0.36027055  0.14486791  0.99188714     0.18800
C957        C  0.35549282  0.11886041  0.97493291    -0.09100
C958        C  0.37575693  0.09521216  0.97692526    -0.02100
H959        H  0.38786947  0.16626650  0.02507359     0.05300
C960        C  0.33857939  0.16943346  0.99134257     0.20800
H961        H  0.37231076  0.07555276  0.96322940     0.10500
C962        C  0.34052107  0.19143486  0.96904859    -0.15400
C963        C  0.31816954  0.21318018  0.96631854     0.03500
C964        C  0.29417156  0.21344089  0.98677189    -0.10800
C965        C  0.29296827  0.19193589  0.00960979    -0.00800
C966        C  0.31479932  0.16986123  0.01185224    -0.06000
H967        H  0.35857092  0.19069506  0.95285196     0.06500
H968        H  0.27397266  0.19130963  0.02471087     0.09900
Br969      Br  0.32146631  0.11465298  0.94907162    -0.05700
Br970      Br  0.43647049  0.12637827  0.04260572    -0.02600
Br971      Br  0.31924054  0.23906720  0.93209420     0.00200
Br972      Br  0.30978276  0.13901169  0.04133431    -0.04100
C973        C  0.51919277  0.20789787  0.77645430    -0.11500
C974        C  0.54206100  0.20067460  0.79703472     0.03900
C975        C  0.53729200  0.17857111  0.81886516    -0.12100
C976        C  0.50985021  0.16333659  0.82076970     0.18800
C977        C  0.48710340  0.17030175  0.80000947    -0.09100
C978        C  0.49204980  0.19206908  0.77785119    -0.02100
H979        H  0.55512195  0.17316293  0.83440582     0.05300
C980        C  0.50571555  0.13995991  0.84422702     0.20800
H981        H  0.47433539  0.19732291  0.76215726     0.10500
C982        C  0.49210574  0.14734079  0.87152063    -0.15400
C983        C  0.48903488  0.12610460  0.89457900     0.03500
C984        C  0.49994838  0.09656137  0.89068064    -0.10800
C985        C  0.51305563  0.08927049  0.86289389    -0.00800
C986        C  0.51600390  0.11057100  0.83995981    -0.06000
H987        H  0.48388313  0.16985274  0.87494227     0.06500
H988        H  0.52165087  0.06697159  0.85906472     0.09900
Br989      Br  0.44882321  0.15094590  0.80140011    -0.05700
Br990      Br  0.58071396  0.21923852  0.79523568    -0.02600
Br991      Br  0.46869734  0.13900688  0.93017938     0.00200
Br992      Br  0.53437385  0.09869296  0.80303384    -0.04100
C993        C  0.50245847  0.89748434  0.89349451    -0.11500
C994        C  0.52069950  0.87180573  0.89635988     0.03900
C995        C  0.52102108  0.85017067  0.87369427    -0.12100
C996        C  0.50362621  0.85351017  0.84773557     0.18800
C997        C  0.48552803  0.87917393  0.84472307    -0.09100
C998        C  0.48519333  0.90088061  0.86735672    -0.02100
H999        H  0.53513789  0.83063941  0.87624149     0.05300
C1000       C  0.50461059  0.82989369  0.82426777     0.20800
H1001       H  0.47115914  0.92044258  0.86458533     0.10500
C1002       C  0.47895269  0.81260562  0.81858139    -0.15400
C1003       C  0.47927757  0.78988851  0.79698561     0.03500
C1004       C  0.50569813  0.78371090  0.78090578    -0.10800
C1005       C  0.53117825  0.80137460  0.78612533    -0.00800
C1006       C  0.53090178  0.82412344  0.80770749    -0.06000
H1007       H  0.45849002  0.81697891  0.83085219     0.06500
H1008       H  0.55139323  0.79729199  0.77336945     0.09900
Br1009     Br  0.46154283  0.88601643  0.80972746    -0.05700
Br1010     Br  0.54729362  0.86585585  0.92960618    -0.02600
Br1011     Br  0.44249951  0.76960924  0.78840766     0.00200
Br1012     Br  0.56663384  0.84739270  0.81307136    -0.04100
C1013       C  0.50123550  0.89829787  0.09420925    -0.11500
C1014       C  0.48226082  0.87299866  0.09314245     0.03900
C1015       C  0.48376316  0.85105888  0.11562818    -0.12100
C1016       C  0.50370130  0.85378726  0.13977301     0.18800
C1017       C  0.52235843  0.87922827  0.14116448    -0.09100
C1018       C  0.52091278  0.90119272  0.11865707    -0.02100
H1019       H  0.46916152  0.83175648  0.11432511     0.05300
C1020       C  0.50526751  0.82961380  0.16283700     0.20800
H1021       H  0.53552060  0.92048251  0.12009792     0.10500
C1022       C  0.53137298  0.81229251  0.16510005    -0.15400
C1023       C  0.53395253  0.78957946  0.18658125     0.03500
C1024       C  0.51008756  0.78359511  0.20645234    -0.10800
C1025       C  0.48393317  0.80089416  0.20427481    -0.00800
C1026       C  0.48127609  0.82354385  0.18255988    -0.06000
H1027       H  0.55000749  0.81666505  0.15017915     0.06500
H1028       H  0.46545588  0.79654602  0.21937640     0.09900
Br1029     Br  0.54963841  0.88526068  0.17383751    -0.05700
Br1030     Br  0.45228817  0.86822272  0.06273146    -0.02600
Br1031     Br  0.57148318  0.76897363  0.18912474     0.00200
Br1032     Br  0.44474806  0.84604112  0.18109478    -0.04100
C1033       C  0.50491241  0.09763853  0.09172527    -0.11500
C1034       C  0.52431396  0.12230775  0.08772923     0.03900
C1035       C  0.52718898  0.14383026  0.11024291    -0.12100
C1036       C  0.51223669  0.14074839  0.13768282     0.18800
C1037       C  0.49352649  0.11574118  0.14216177    -0.09100
C1038       C  0.48969836  0.09469265  0.11918184    -0.02100
H1039       H  0.54227034  0.16251345  0.10682427     0.05300
C1040       C  0.51820028  0.16287248  0.16181052     0.20800
H1041       H  0.47531146  0.07556546  0.12306035     0.10500
C1042       C  0.49535565  0.18221986  0.17154054    -0.15400
C1043       C  0.50102809  0.20410145  0.19336581     0.03500
C1044       C  0.52992796  0.20700250  0.20563398    -0.10800
C1045       C  0.55242852  0.18708095  0.19654531    -0.00800
C1046       C  0.54692092  0.16540621  0.17469468    -0.06000
H1047       H  0.47309129  0.18031882  0.16208498     0.06500
H1048       H  0.57455780  0.18873447  0.20635408     0.09900
Br1049     Br  0.47488816  0.10809709  0.18010127    -0.05700
Br1050     Br  0.55061329  0.12591465  0.05390596    -0.02600
Br1051     Br  0.46844695  0.22819752  0.20721365     0.00200
Br1052     Br  0.57922669  0.13932512  0.16362996    -0.04100
C1053       C  0.29349971  0.98185779  0.20984592    -0.11500
C1054       C  0.30085224  0.95723931  0.19175496     0.03900
C1055       C  0.32403728  0.95962540  0.17089890    -0.12100
C1056       C  0.34034336  0.98629405  0.16790579     0.18800
C1057       C  0.33412246  0.01031434  0.18735702    -0.09100
C1058       C  0.31084446  0.00790056  0.20821412    -0.02100
H1059       H  0.32870110  0.94093378  0.15625017     0.05300
C1060       C  0.36227010  0.98905220  0.14315463     0.20800
H1061       H  0.30520620  0.02698102  0.22199734     0.10500
C1062       C  0.35706225  0.00988327  0.12014507    -0.15400
C1063       C  0.37669820  0.01231448  0.09578920     0.03500
C1064       C  0.40177074  0.99325850  0.09395796    -0.10800
C1065       C  0.40693321  0.97249969  0.11700581    -0.00800
C1066       C  0.38750747  0.97027000  0.14141937    -0.06000
H1067       H  0.33767904  0.02441203  0.12122403     0.06500
H1068       H  0.42632248  0.95795397  0.11606562     0.09900
Br1069     Br  0.35618212  0.04707579  0.18582808    -0.05700
Br1070     Br  0.27929495  0.92017596  0.19442307    -0.02600
Br1071     Br  0.36952320  0.04343302  0.06702750     0.00200
Br1072     Br  0.39717474  0.94205491  0.17234929    -0.04100
C1073       C  0.69945537  0.02142931  0.77190997    -0.11500
C1074       C  0.67870544  0.04380906  0.77929752     0.03900
C1075       C  0.65658151  0.03794229  0.80069160    -0.12100
C1076       C  0.65539297  0.01010870  0.81527884     0.18800
C1077       C  0.67501223  0.98715545  0.80632528    -0.09100
C1078       C  0.69686493  0.99299819  0.78477183    -0.02100
H1079       H  0.64141539  0.05565056  0.80727210     0.05300
C1080       C  0.63563495  0.00628342  0.84153861     0.20800
H1081       H  0.71318507  0.97587982  0.77947262     0.10500
C1082       C  0.61241646  0.98523720  0.84059901    -0.15400
C1083       C  0.59389309  0.98069851  0.86539392     0.03500
C1084       C  0.59769720  0.99827820  0.89133252    -0.10800
C1085       C  0.62154543  0.01867462  0.89259921    -0.00800
C1086       C  0.64062129  0.02257733  0.86805640    -0.06000
H1087       H  0.60899989  0.97196766  0.82063430     0.06500
H1088       H  0.62496932  0.03208088  0.91247149     0.09900
Br1089     Br  0.67525296  0.94859783  0.82519483    -0.05700
Br1090     Br  0.68194428  0.08341572  0.76310796    -0.02600
Br1091     Br  0.56523044  0.94872736  0.86334770     0.00200
Br1092     Br  0.67379438  0.04963094  0.87213022    -0.04100
C1093       C  0.40189708  0.00183983  0.89101448    -0.11500
C1094       C  0.37331588  0.98827580  0.89184005     0.03900
C1095       C  0.35503231  0.98901593  0.86635093    -0.12100
C1096       C  0.36465525  0.00305192  0.83992675     0.18800
C1097       C  0.39270920  0.01712679  0.83920068    -0.09100
C1098       C  0.41102166  0.01643943  0.86452425    -0.02100
H1099       H  0.33326412  0.97829447  0.86700480     0.05300
C1100       C  0.34452067  0.00336617  0.81376267     0.20800
H1101       H  0.43272665  0.02724537  0.86335608     0.10500
C1102       C  0.32436808  0.02712378  0.81049744    -0.15400
C1103       C  0.30123546  0.02556156  0.78952985     0.03500
C1104       C  0.29801134  0.99990171  0.77167226    -0.10800
C1105       C  0.31977329  0.97737929  0.77295584    -0.00800
C1106       C  0.34303748  0.97897896  0.79391887    -0.06000
H1107       H  0.32570664  0.04619126  0.82534145     0.06500
H1108       H  0.31737680  0.95753069  0.75931064     0.09900
Br1109     Br  0.40710234  0.03700605  0.80395037    -0.05700
Br1110     Br  0.35861956  0.96680892  0.92607511    -0.02600
Br1111     Br  0.27323093  0.05803234  0.78722736     0.00200
Br1112     Br  0.37100115  0.94654064  0.79615919    -0.04100
C1113       C  0.50968440  0.08847413  0.38749812    -0.11500
C1114       C  0.49641602  0.11699067  0.38597057     0.03900
C1115       C  0.50365888  0.13621730  0.36229409    -0.12100
C1116       C  0.52328513  0.12722808  0.33937576     0.18800
C1117       C  0.53631333  0.09857971  0.34084550    -0.09100
C1118       C  0.52946505  0.07959138  0.36472469    -0.02100
H1119       H  0.49358125  0.15822535  0.36153100     0.05300
C1120       C  0.52997975  0.14826990  0.31451336     0.20800
H1121       H  0.53990882  0.05774125  0.36560763     0.10500
C1122       C  0.55951455  0.15823338  0.31014494    -0.15400
C1123       C  0.56599218  0.18062094  0.28918389     0.03500
C1124       C  0.54269967  0.19357643  0.27227259    -0.10800
C1125       C  0.51350303  0.18244898  0.27540379    -0.00800
C1126       C  0.50697557  0.16011812  0.29636894    -0.06000
H1127       H  0.57744574  0.14936643  0.32387448     0.06500
H1128       H  0.49533329  0.19246252  0.26285270     0.09900
Br1129     Br  0.56287725  0.08370060  0.31056695    -0.05700
Br1130     Br  0.46656674  0.12988193  0.41408073    -0.02600
Br1131     Br  0.60686507  0.19322922  0.28484874     0.00200
Br1132     Br  0.46604166  0.14743528  0.30003301    -0.04100
C1133       C  0.50560245  0.78985314  0.27656907    -0.11500
C1134       C  0.52733305  0.81239827  0.28009330     0.03900
C1135       C  0.52407052  0.83357370  0.30286444    -0.12100
C1136       C  0.49988639  0.83196772  0.32285334     0.18800
C1137       C  0.47787670  0.80984540  0.31897065    -0.09100
C1138       C  0.48068332  0.78928187  0.29574095    -0.02100
H1139       H  0.54114680  0.85052560  0.30587532     0.05300
C1140       C  0.49819447  0.85297419  0.34812904     0.20800
H1141       H  0.46433084  0.77146743  0.29384703     0.10500
C1142       C  0.47552953  0.87461039  0.34825051    -0.15400
C1143       C  0.47297549  0.89474094  0.37190500     0.03500
C1144       C  0.49335380  0.89328768  0.39597073    -0.10800
C1145       C  0.51554447  0.87115614  0.39624801    -0.00800
C1146       C  0.51827533  0.85119776  0.37240609    -0.06000
H1147       H  0.45980295  0.87583155  0.32981592     0.06500
H1148       H  0.53145878  0.87008462  0.41453477     0.09900
Br1149     Br  0.44540377  0.80486478  0.34673907    -0.05700
Br1150     Br  0.56357323  0.81312638  0.25721876    -0.02600
Br1151     Br  0.44073134  0.92312880  0.37064323     0.00200
Br1152     Br  0.54977682  0.82208640  0.37404720    -0.04100
C1153       C  0.51819487  0.20230472  0.70645881    -0.11500
C1154       C  0.54270876  0.18652109  0.69464571     0.03900
C1155       C  0.53833627  0.16622481  0.67126704    -0.12100
C1156       C  0.50980974  0.16212999  0.65863553     0.18800
C1157       C  0.48519046  0.17777901  0.67074103    -0.09100
C1158       C  0.48954866  0.19752633  0.69456359    -0.02100
H1159       H  0.55738826  0.15412734  0.66241436     0.05300
C1160       C  0.50602086  0.14081016  0.63356875     0.20800
H1161       H  0.47080644  0.21064086  0.70260401     0.10500
C1162       C  0.48679307  0.11632102  0.63743380    -0.15400
C1163       C  0.48296349  0.09520393  0.61481947     0.03500
C1164       C  0.49956401  0.09767913  0.58803276    -0.10800
C1165       C  0.51829332  0.12253397  0.58382093    -0.00800
C1166       C  0.52149272  0.14411907  0.60619253    -0.06000
H1167       H  0.47455212  0.11367266  0.65820696     0.06500
H1168       H  0.53090705  0.12494586  0.56323508     0.09900
Br1169     Br  0.44572156  0.17526348  0.65378983    -0.05700
Br1170     Br  0.58279065  0.19389415  0.70822107    -0.02600
Br1171     Br  0.45326914  0.06472738  0.62122435     0.00200
Br1172     Br  0.54653341  0.17795114  0.59764318    -0.04100
C1173       C  0.49592229  0.90116435  0.59727149    -0.11500
C1174       C  0.48005085  0.87388282  0.59817102     0.03900
C1175       C  0.48335775  0.85486494  0.62288343    -0.12100
C1176       C  0.50207041  0.86270208  0.64686265     0.18800
C1177       C  0.51739109  0.89007070  0.64625471    -0.09100
C1178       C  0.51423924  0.90900956  0.62164894    -0.02100
H1179       H  0.47140489  0.83378526  0.62337544     0.05300
C1180       C  0.50678281  0.84109607  0.67130881     0.20800
H1181       H  0.52657540  0.92987675  0.62141631     0.10500
C1182       C  0.53149318  0.82194039  0.66971296    -0.15400
C1183       C  0.53460966  0.79835380  0.68993605     0.03500
C1184       C  0.51285921  0.79388435  0.71244586    -0.10800
C1185       C  0.48925006  0.81438377  0.71529663    -0.00800
C1186       C  0.48598772  0.83780254  0.69474100    -0.06000
H1187       H  0.54769474  0.82456359  0.65183365     0.06500
H1188       H  0.47210643  0.81093269  0.73210060     0.09900
Br1189     Br  0.54278075  0.90252690  0.67852131    -0.05700
Br1190     Br  0.45241432  0.86217219  0.56740541    -0.02600
Br1191     Br  0.56820091  0.77200696  0.68480242     0.00200
Br1192     Br  0.45186490  0.86355425  0.69819510    -0.04100
C1193       C  0.39768757  0.99534161  0.39108593    -0.11500
C1194       C  0.37195174  0.97704707  0.39333779     0.03900
C1195       C  0.35052022  0.97708520  0.37044180    -0.12100
C1196       C  0.35399493  0.99502720  0.34489937     0.18800
C1197       C  0.37939603  0.01369597  0.34274519    -0.09100
C1198       C  0.40107607  0.01349586  0.36555499    -0.02100
H1199       H  0.33108969  0.96268327  0.37240532     0.05300
C1200       C  0.33093819  0.99343728  0.32084508     0.20800
H1201       H  0.42057284  0.02778197  0.36343998     0.10500
C1202       C  0.31261261  0.01828573  0.31494601    -0.15400
C1203       C  0.28969043  0.01678712  0.29350026     0.03500
C1204       C  0.28439967  0.98998033  0.27790071    -0.10800
C1205       C  0.30311453  0.96538619  0.28327047    -0.00800
C1206       C  0.32615509  0.96688337  0.30452415    -0.06000
H1207       H  0.31614248  0.03891071  0.32709851     0.06500
H1208       H  0.29964167  0.94490518  0.27087059     0.09900
Br1209     Br  0.38584851  0.03922987  0.30878923    -0.05700
Br1210     Br  0.36566628  0.94985083  0.42601898    -0.02600
Br1211     Br  0.26750199  0.05235706  0.28481823     0.00200
Br1212     Br  0.35105875  0.93233400  0.30986591    -0.04100
C1213       C  0.71010729  0.02342439  0.70376249    -0.11500
C1214       C  0.70256389  0.04549778  0.68248250     0.03900
C1215       C  0.67963022  0.04017773  0.66169816    -0.12100
C1216       C  0.66382985  0.01305679  0.66172338     0.18800
C1217       C  0.67148779  0.99093262  0.68282218    -0.09100
C1218       C  0.69441103  0.99622870  0.70359258    -0.02100
H1219       H  0.67390540  0.05736972  0.64558485     0.05300
C1220       C  0.63986167  0.00809184  0.63919974     0.20800
H1221       H  0.69999832  0.97910258  0.71979017     0.10500
C1222       C  0.64682502  0.99325895  0.61254412    -0.15400
C1223       C  0.62510769  0.98875089  0.59030818     0.03500
C1224       C  0.59556781  0.99983258  0.59417394    -0.10800
C1225       C  0.58858644  0.01406478  0.62147577    -0.00800
C1226       C  0.61034786  0.01809583  0.64384049    -0.06000
H1227       H  0.66935392  0.98492622  0.60910073     0.06500
H1228       H  0.56619365  0.02253427  0.62536569     0.09900
Br1229     Br  0.65082809  0.95341429  0.68437227    -0.05700
Br1230     Br  0.72159825  0.08386931  0.68197441    -0.02600
Br1231     Br  0.63729315  0.96558601  0.55628783     0.00200
Br1232     Br  0.59891581  0.03707989  0.68059771    -0.04100
C1233       C  0.39591227  0.00343953  0.59050061    -0.11500
C1234       C  0.36822552  0.01822313  0.58587890     0.03900
C1235       C  0.34600109  0.01725623  0.60807485    -0.12100
C1236       C  0.35105168  0.00249274  0.63532200     0.18800
C1237       C  0.37912075  0.98917275  0.64058171    -0.09100
C1238       C  0.40111117  0.98956819  0.61829593    -0.02100
H1239       H  0.32467838  0.02812547  0.60409793     0.05300
C1240       C  0.32676183  0.00028023  0.65785736     0.20800
H1241       H  0.42228706  0.97856503  0.62265902     0.10500
C1242       C  0.31377076  0.97227001  0.66353343    -0.15400
C1243       C  0.29250348  0.96864608  0.68624967     0.03500
C1244       C  0.28416140  0.99321567  0.70401758    -0.10800
C1245       C  0.29659510  0.02138132  0.69792768    -0.00800
C1246       C  0.31743688  0.02515432  0.67474800    -0.06000
H1247       H  0.32063344  0.95303253  0.65054123     0.06500
H1248       H  0.28993050  0.04043877  0.71125274     0.09900
Br1249     Br  0.38864305  0.97073526  0.67822885    -0.05700
Br1250     Br  0.36000426  0.04185187  0.55087626    -0.02600
Br1251     Br  0.27663346  0.92946646  0.69312429     0.00200
Br1252     Br  0.33307626  0.06441329  0.66743322    -0.04100
C1253       C  0.70150172  0.98301552  0.21277442    -0.11500
C1254       C  0.67861506  0.96211665  0.20706623     0.03900
C1255       C  0.65742159  0.96798820  0.18471305    -0.12100
C1256       C  0.65900101  0.99429918  0.16764215     0.18800
C1257       C  0.68083677  0.01586683  0.17446434    -0.09100
C1258       C  0.70178280  0.01014923  0.19697095    -0.02100
H1259       H  0.64058810  0.95131456  0.17956065     0.05300
C1260       C  0.63917510  0.99780095  0.14144595     0.20800
H1261       H  0.71964388  0.02610862  0.20079465     0.10500
C1262       C  0.61440560  0.01685217  0.14322258    -0.15400
C1263       C  0.59453659  0.01954883  0.11918193     0.03500
C1264       C  0.59902926  0.00247388  0.09295001    -0.10800
C1265       C  0.62475121  0.98455185  0.09072781    -0.00800
C1266       C  0.64482212  0.98224070  0.11468297    -0.06000
H1267       H  0.61049907  0.02960878  0.16343203     0.06500
H1268       H  0.62881632  0.97162776  0.07066062     0.09900
Br1269     Br  0.68481288  0.05196540  0.15159822    -0.05700
Br1270     Br  0.67719102  0.92404275  0.22666547    -0.02600
Br1271     Br  0.56270875  0.04811283  0.12302031     0.00200
Br1272     Br  0.67984369  0.95784302  0.10991929    -0.04100
C1273       C  0.71038491  0.97725489  0.28167176    -0.11500
C1274       C  0.70282778  0.95304805  0.30036934     0.03900
C1275       C  0.68019292  0.95617722  0.32173519    -0.12100
C1276       C  0.66499778  0.98337400  0.32517722     0.18800
C1277       C  0.67318527  0.00794818  0.30709569    -0.09100
C1278       C  0.69542961  0.00457894  0.28520215    -0.02100
H1279       H  0.67438925  0.93727942  0.33578467     0.05300
C1280       C  0.64108128  0.98552607  0.34808753     0.20800
H1281       H  0.70139335  0.02335996  0.27108794     0.10500
C1282       C  0.64577239  0.00318959  0.37352574    -0.15400
C1283       C  0.62425180  0.00473907  0.39626910     0.03500
C1284       C  0.59727954  0.98830291  0.39378598    -0.10800
C1285       C  0.59256674  0.97081958  0.36810117    -0.00800
C1286       C  0.61424356  0.96911945  0.34552662    -0.06000
H1287       H  0.66641230  0.01575154  0.37575351     0.06500
H1288       H  0.57206744  0.95805220  0.36573565     0.09900
Br1289     Br  0.65451151  0.04633434  0.31127698    -0.05700
Br1290     Br  0.72205648  0.91495386  0.29684343    -0.02600
Br1291     Br  0.63262274  0.03091945  0.42923355     0.00200
Br1292     Br  0.60604334  0.94427677  0.31150597    -0.04100
C1293       C  0.39107581  0.90170156  0.49586290    -0.11500
C1294       C  0.39160396  0.87368586  0.48138628     0.03900
C1295       C  0.36695011  0.85443907  0.48388936    -0.12100
C1296       C  0.34125518  0.86302910  0.49978228     0.18800
C1297       C  0.33995588  0.89153292  0.51270167    -0.09100
C1298       C  0.36478698  0.91049005  0.51092726    -0.02100
H1299       H  0.36775156  0.83268564  0.47331371     0.05300
C1300       C  0.31690250  0.84117300  0.50423569     0.20800
H1301       H  0.36355536  0.93218956  0.52156919     0.10500
C1302       C  0.31775965  0.82284625  0.52964234    -0.15400
C1303       C  0.29759417  0.79920492  0.53289206     0.03500
C1304       C  0.27608287  0.79367324  0.51045645    -0.10800
C1305       C  0.27381660  0.81339030  0.48610885    -0.00800
C1306       C  0.29414480  0.83703517  0.48284968    -0.06000
H1307       H  0.33494795  0.82624040  0.54642225     0.06500
H1308       H  0.25765269  0.80917150  0.46853648     0.09900
Br1309     Br  0.30450618  0.90548238  0.53251299    -0.05700
Br1310     Br  0.42405563  0.86153600  0.45594299    -0.02600
Br1311     Br  0.30113928  0.77431595  0.56779240     0.00200
Br1312     Br  0.29121872  0.86205792  0.44813413    -0.04100
C1313       C  0.59516766  0.89445014  0.49145905    -0.11500
C1314       C  0.59595922  0.86854637  0.50943166     0.03900
C1315       C  0.62080629  0.84945409  0.50791958    -0.12100
C1316       C  0.64507189  0.85599511  0.48897774     0.18800
C1317       C  0.64428762  0.88172941  0.47105971    -0.09100
C1318       C  0.61948854  0.90065038  0.47234825    -0.02100
H1319       H  0.62148310  0.82969287  0.52195229     0.05300
C1320       C  0.67089724  0.83551687  0.48812977     0.20800
H1321       H  0.61936685  0.92059022  0.45853966     0.10500
C1322       C  0.67202801  0.81355084  0.46590870    -0.15400
C1323       C  0.69390520  0.79127560  0.46685427     0.03500
C1324       C  0.71468462  0.79055662  0.49059533    -0.10800
C1325       C  0.71512358  0.81401762  0.51133896    -0.00800
C1326       C  0.69346336  0.83659297  0.51009531    -0.06000
H1327       H  0.65523343  0.81315459  0.44840656     0.06500
H1328       H  0.73100324  0.81377812  0.52964061     0.09900
Br1329     Br  0.67706461  0.89236944  0.44537645    -0.05700
Br1330     Br  0.56524544  0.85963570  0.53817766    -0.02600
Br1331     Br  0.69409982  0.76174835  0.43573425     0.00200
Br1332     Br  0.69466376  0.86781373  0.53938314    -0.04100
C1333       C  0.71952382  0.19407728  0.51218755    -0.11500
C1334       C  0.70214402  0.18233141  0.53572189     0.03900
C1335       C  0.68251481  0.15864362  0.53034039    -0.12100
C1336       C  0.67940543  0.14673848  0.50153087     0.18800
C1337       C  0.69790631  0.15739092  0.47829233    -0.09100
C1338       C  0.71809368  0.18074091  0.48384337    -0.02100
H1339       H  0.66840740  0.15054431  0.54835237     0.05300
C1340       C  0.65466831  0.12546642  0.49604568     0.20800
H1341       H  0.73102443  0.18995052  0.46549045     0.10500
C1342       C  0.62818021  0.13584417  0.48267461    -0.15400
C1343       C  0.60275119  0.11752789  0.48057743     0.03500
C1344       C  0.60357131  0.08812294  0.49225571    -0.10800
C1345       C  0.63061031  0.07774933  0.50495910    -0.00800
C1346       C  0.65588297  0.09605375  0.50689059    -0.06000
H1347       H  0.62712315  0.15857509  0.47434012     0.06500
H1348       H  0.63211913  0.05530202  0.51395568     0.09900
Br1349     Br  0.69501460  0.14199648  0.43840442    -0.05700
Br1350     Br  0.70302203  0.19926625  0.57512846    -0.02600
Br1351     Br  0.56832283  0.13397972  0.46073794     0.00200
Br1352     Br  0.69160302  0.07995103  0.52456581    -0.04100
C1353       C  0.40035238  0.09644841  0.48442641    -0.11500
C1354       C  0.37363448  0.09220929  0.46802184     0.03900
C1355       C  0.35014070  0.11250482  0.47101527    -0.12100
C1356       C  0.35293266  0.13758365  0.48950575     0.18800
C1357       C  0.37991972  0.14227817  0.50527952    -0.09100
C1358       C  0.40336051  0.12179815  0.50254558    -0.02100
H1359       H  0.32955971  0.10878708  0.45870536     0.05300
C1360       C  0.32758312  0.15867636  0.49163154     0.20800
H1361       H  0.42365527  0.12520160  0.51541133     0.10500
C1362       C  0.31407228  0.16381132  0.51952103    -0.15400
C1363       C  0.29182255  0.18553309  0.52263788     0.03500
C1364       C  0.28201422  0.20154764  0.49741989    -0.10800
C1365       C  0.29435581  0.19538328  0.46930520    -0.00800
C1366       C  0.31709913  0.17421272  0.46622201    -0.06000
H1367       H  0.32179113  0.15180659  0.53913219     0.06500
H1368       H  0.28752559  0.20839726  0.45000225     0.09900
Br1369     Br  0.38620076  0.17619879  0.53074225    -0.05700
Br1370     Br  0.36820798  0.06001308  0.44014506    -0.02600
Br1371     Br  0.27787532  0.19500553  0.56207187     0.00200
Br1372     Br  0.33503162  0.16965647  0.42742364    -0.04100
C1373       C  0.89682924  0.00369993  0.59289080    -0.11500
C1374       C  0.90011683  0.00012409  0.62421913     0.03900
C1375       C  0.87563394  0.00554466  0.64303650    -0.12100
C1376       C  0.84796742  0.01467056  0.63133915     0.18800
C1377       C  0.84464484  0.01866068  0.60048358    -0.09100
C1378       C  0.86875025  0.01300125  0.58159431    -0.02100
H1379       H  0.87818536  0.00277209  0.66699309     0.05300
C1380       C  0.82307695  0.02100324  0.65183038     0.20800
H1381       H  0.86545135  0.01665613  0.55786288     0.10500
C1382       C  0.82237462  0.04861996  0.66637556    -0.15400
C1383       C  0.80061973  0.05452497  0.68793252     0.03500
C1384       C  0.77928802  0.03245352  0.69530343    -0.10800
C1385       C  0.77887386  0.00548231  0.67934472    -0.00800
C1386       C  0.80064478  0.99966425  0.65760429    -0.06000
H1387       H  0.83925370  0.06533595  0.66143422     0.06500
H1388       H  0.76283053  0.98822018  0.68507029     0.09900
Br1389     Br  0.80787376  0.03291059  0.58333139    -0.05700
Br1390     Br  0.93674878  0.98781599  0.64319653    -0.02600
Br1391     Br  0.80137250  0.09287183  0.70712829     0.00200
Br1392     Br  0.80016366  0.96178896  0.63754940    -0.04100
C1393       C  0.10024506  0.99125665  0.59131775    -0.11500
C1394       C  0.10188733  0.01109963  0.61565773     0.03900
C1395       C  0.12654657  0.00992680  0.63485864    -0.12100
C1396       C  0.14972598  0.98936060  0.62994364     0.18800
C1397       C  0.14831540  0.96983438  0.60542326    -0.09100
C1398       C  0.12371652  0.97097294  0.58624079    -0.02100
H1399       H  0.12759826  0.02496213  0.65380436     0.05300
C1400       C  0.17387591  0.98684720  0.65208514     0.20800
H1401       H  0.12285729  0.95590056  0.56730288     0.10500
C1402       C  0.17408194  0.96186382  0.67094870    -0.15400
C1403       C  0.19476601  0.95965445  0.69413975     0.03500
C1404       C  0.21573697  0.98275039  0.69865592    -0.10800
C1405       C  0.21637819  0.00719157  0.67894020    -0.00800
C1406       C  0.19550264  0.00942612  0.65573686    -0.06000
H1407       H  0.15750486  0.94439087  0.66809129     0.06500
H1408       H  0.23204065  0.02532407  0.68253073     0.09900
Br1409     Br  0.17970142  0.94167454  0.59717527    -0.05700
Br1410     Br  0.07219129  0.04137123  0.62247650    -0.02600
Br1411     Br  0.19296871  0.92482901  0.71924257     0.00200
Br1412     Br  0.19676461  0.04387745  0.63012806    -0.04100
C1413       C  0.21500494  0.99080887  0.28867377    -0.11500
C1414       C  0.21036611  0.96575925  0.30719781     0.03900
C1415       C  0.18844913  0.96679583  0.32962471    -0.12100
C1416       C  0.17109043  0.99262569  0.33373261     0.18800
C1417       C  0.17680616  0.01808535  0.31611305    -0.09100
C1418       C  0.19831637  0.01685203  0.29353279    -0.02100
H1419       H  0.18426829  0.94716963  0.34323432     0.05300
C1420       C  0.14649535  0.99274564  0.35577711     0.20800
H1421       H  0.20099868  0.03585188  0.27870993     0.10500
C1422       C  0.14930961  0.01056136  0.38131461    -0.15400
C1423       C  0.12562161  0.01340513  0.40147551     0.03500
C1424       C  0.09862170  0.99759514  0.39654394    -0.10800
C1425       C  0.09577878  0.97988048  0.37084583    -0.00800
C1426       C  0.11943666  0.97738709  0.35048632    -0.06000
H1427       H  0.16981540  0.02296867  0.38512396     0.06500
H1428       H  0.07526384  0.96756737  0.36681027     0.09900
Br1429     Br  0.15423443  0.05432261  0.32052843    -0.05700
Br1430     Br  0.23135501  0.92894416  0.30067826    -0.02600
Br1431     Br  0.13096247  0.04095961  0.43397888     0.00200
Br1432     Br  0.11330257  0.95356983  0.31538911    -0.04100
C1433       C  0.89426330  0.99730722  0.39864720    -0.11500
C1434       C  0.89498560  0.00933210  0.36938056     0.03900
C1435       C  0.87016256  0.00567269  0.35041240    -0.12100
C1436       C  0.84420803  0.99086742  0.36029496     0.18800
C1437       C  0.84284961  0.98024286  0.38977432    -0.09100
C1438       C  0.86767693  0.98330018  0.40851922    -0.02100
H1439       H  0.87119016  0.01416628  0.32771573     0.05300
C1440       C  0.82025376  0.98378907  0.33861343     0.20800
H1441       H  0.86623907  0.97409952  0.43091245     0.10500
C1442       C  0.82319634  0.95787826  0.32139932    -0.15400
C1443       C  0.80280085  0.95143774  0.29863865     0.03500
C1444       C  0.77934574  0.97157723  0.29216937    -0.10800
C1445       C  0.77515332  0.99647596  0.31085460    -0.00800
C1446       C  0.79521521  0.00243170  0.33427639    -0.06000
H1447       H  0.84179689  0.94282953  0.32538507     0.06500
H1448       H  0.75727020  0.01217963  0.30634249     0.09900
Br1449     Br  0.80768662  0.96088547  0.40515981    -0.05700
Br1450     Br  0.92817759  0.03226624  0.35451222    -0.02600
Br1451     Br  0.80801874  0.91467859  0.27716706     0.00200
Br1452     Br  0.78810472  0.03644209  0.35930768    -0.04100
C1453       C  0.09528383  0.89395441  0.49218714    -0.11500
C1454       C  0.12389725  0.89711813  0.47878489     0.03900
C1455       C  0.14461577  0.87360747  0.48019927    -0.12100
C1456       C  0.13740694  0.84649692  0.49421562     0.18800
C1457       C  0.10862975  0.84275936  0.50651366    -0.09100
C1458       C  0.08799767  0.86634218  0.50559449    -0.02100
H1459       H  0.16656818  0.87646469  0.47023109     0.05300
C1460       C  0.16063789  0.82288947  0.49654092     0.20800
H1461       H  0.06615668  0.86305555  0.51566395     0.10500
C1462       C  0.17586229  0.81894423  0.52372840    -0.15400
C1463       C  0.19923144  0.79818082  0.52627942     0.03500
C1464       C  0.20766193  0.78081739  0.50138541    -0.10800
C1465       C  0.19202656  0.78436857  0.47436098    -0.00800
C1466       C  0.16883660  0.80533348  0.47173212    -0.06000
H1467       H  0.16970895  0.83230231  0.54296394     0.06500
H1468       H  0.19822190  0.77101878  0.45515514     0.09900
Br1469     Br  0.09625731  0.80558905  0.52406352    -0.05700
Br1470     Br  0.13581000  0.93195295  0.45658055    -0.02600
Br1471     Br  0.21812301  0.79356621  0.56447019     0.00200
Br1472     Br  0.14887248  0.80920643  0.43394867    -0.04100
C1473       C  0.78324651  0.78316619  0.50043799    -0.11500
C1474       C  0.79582919  0.79511695  0.52667556     0.03900
C1475       C  0.81731457  0.81795517  0.52489488    -0.12100
C1476       C  0.82664202  0.82929339  0.49706323     0.18800
C1477       C  0.81387174  0.81734327  0.47075813    -0.09100
C1478       C  0.79222228  0.79461438  0.47262368    -0.02100
H1479       H  0.82683868  0.82688014  0.54530185     0.05300
C1480       C  0.85021330  0.85294378  0.49593168     0.20800
H1481       H  0.78241113  0.78569759  0.45235649     0.10500
C1482       C  0.87881788  0.84577343  0.48520286    -0.15400
C1483       C  0.90183491  0.86716440  0.48409290     0.03500
C1484       C  0.89659135  0.89687322  0.49416189    -0.10800
C1485       C  0.86764952  0.90389381  0.50469907    -0.00800
C1486       C  0.84474018  0.88234446  0.50571691    -0.06000
H1487       H  0.88326254  0.82324908  0.47752494     0.06500
H1488       H  0.86276517  0.92625311  0.51253563     0.09900
Br1489     Br  0.82476369  0.83189939  0.43186965    -0.05700
Br1490     Br  0.78314825  0.78157619  0.56533363    -0.02600
Br1491     Br  0.93911150  0.85383179  0.46714792     0.00200
Br1492     Br  0.80603476  0.89429264  0.52000789    -0.04100
C1493       C  0.78686731  0.20957241  0.50767326    -0.11500
C1494       C  0.80369636  0.20698785  0.48114538     0.03900
C1495       C  0.82666166  0.18560240  0.47914456    -0.12100
C1496       C  0.83293231  0.16635897  0.50326316     0.18800
C1497       C  0.81565938  0.16865792  0.52954264    -0.09100
C1498       C  0.79279751  0.18995375  0.53146167    -0.02100
H1499       H  0.83943865  0.18373449  0.45862405     0.05300
C1500       C  0.85709400  0.14363123  0.50078483     0.20800
H1501       H  0.77951609  0.19136260  0.55168992     0.10500
C1502       C  0.88270901  0.14617959  0.51885326    -0.15400
C1503       C  0.90479492  0.12389348  0.51899597     0.03500
C1504       C  0.90171657  0.09860433  0.50026465    -0.10800
C1505       C  0.87615787  0.09626018  0.48209579    -0.00800
C1506       C  0.85400067  0.11839076  0.48225250    -0.06000
H1507       H  0.88507017  0.16522672  0.53360313     0.06500
H1508       H  0.87334750  0.07703548  0.46766043     0.09900
Br1509     Br  0.82170867  0.14236644  0.56298499    -0.05700
Br1510     Br  0.79448713  0.23054805  0.44653855    -0.02600
Br1511     Br  0.93699036  0.12809946  0.54726664     0.00200
Br1512     Br  0.81919793  0.11220700  0.45791961    -0.04100
C1513       C  0.21304820  0.20745301  0.50410921    -0.11500
C1514       C  0.19356804  0.20248263  0.52848486     0.03900
C1515       C  0.17226388  0.17945548  0.52732434    -0.12100
C1516       C  0.17024943  0.16054461  0.50236960     0.18800
C1517       C  0.19037923  0.16486677  0.47839119    -0.09100
C1518       C  0.21152743  0.18806721  0.47945669    -0.02100
H1519       H  0.15717006  0.17626072  0.54604470     0.05300
C1520       C  0.14646162  0.13715374  0.50127042     0.20800
H1521       H  0.22660232  0.19132547  0.46075217     0.10500
C1522       C  0.12434595  0.13879837  0.47895391    -0.15400
C1523       C  0.10185085  0.11705011  0.47673726     0.03500
C1524       C  0.10061499  0.09340334  0.49761056    -0.10800
C1525       C  0.12274987  0.09164374  0.51989422    -0.00800
C1526       C  0.14551170  0.11320842  0.52187689    -0.06000
H1527       H  0.12488222  0.15689786  0.46282521     0.06500
H1528       H  0.12225105  0.07346336  0.53594139     0.09900
Br1529     Br  0.19027280  0.13917202  0.44403484    -0.05700
Br1530     Br  0.19649976  0.22495104  0.56478664    -0.02600
Br1531     Br  0.07502326  0.11926643  0.44323667     0.00200
Br1532     Br  0.17541083  0.10817442  0.55232920    -0.04100
C1533       C  0.99351023  0.59662675  0.09686409    -0.11500
C1534       C  0.01134354  0.62256797  0.09867030     0.03900
C1535       C  0.00778190  0.64203739  0.12293568    -0.12100
C1536       C  0.98662584  0.63606659  0.14549966     0.18800
C1537       C  0.96824293  0.61060377  0.14306936    -0.09100
C1538       C  0.97201477  0.59106637  0.11909595    -0.02100
H1539       H  0.02168159  0.66184561  0.12432147     0.05300
C1540       C  0.98343700  0.65701551  0.17089597     0.20800
H1541       H  0.95796599  0.57134404  0.11776642     0.10500
C1542       C  0.95634375  0.67248551  0.17448841    -0.15400
C1543       C  0.95311125  0.69389631  0.19690931     0.03500
C1544       C  0.97729234  0.70033075  0.21602868    -0.10800
C1545       C  0.00389097  0.68392893  0.21351293    -0.00800
C1546       C  0.00719838  0.66248151  0.19100784    -0.06000
H1547       H  0.93792265  0.66850850  0.15921716     0.06500
H1548       H  0.02279215  0.68917851  0.22778893     0.09900
Br1549     Br  0.93810902  0.60091032  0.17216545    -0.05700
Br1550     Br  0.04194674  0.63147569  0.06976993    -0.02600
Br1551     Br  0.91564292  0.71475307  0.19998621     0.00200
Br1552     Br  0.04491418  0.64213705  0.18807223    -0.04100
C1553       C  0.99216271  0.77726795  0.29486970    -0.11500
C1554       C  0.97003650  0.78171807  0.31684418     0.03900
C1555       C  0.97362766  0.80460893  0.33775015    -0.12100
C1556       C  0.99888898  0.82318810  0.33670367     0.18800
C1557       C  0.02185840  0.81749307  0.31608626    -0.09100
C1558       C  0.01831556  0.79466966  0.29528171    -0.02100
H1559       H  0.95606128  0.80887378  0.35392592     0.05300
C1560       C  0.00052485  0.84900811  0.35667709     0.20800
H1561       H  0.03513356  0.79178785  0.27803272     0.10500
C1562       C  0.01401746  0.84539519  0.38452467    -0.15400
C1563       C  0.01529114  0.86903469  0.40464158     0.03500
C1564       C  0.00255691  0.89709637  0.39690240    -0.10800
C1565       C  0.99003867  0.90085700  0.36831613    -0.00800
C1566       C  0.98884116  0.87696666  0.34826359    -0.06000
H1567       H  0.02348795  0.82394096  0.39067426     0.06500
H1568       H  0.98019706  0.92205385  0.36192026     0.09900
Br1569     Br  0.05722608  0.84180974  0.31409232    -0.05700
Br1570     Br  0.93315527  0.75976086  0.31710169    -0.02600
Br1571     Br  0.03553613  0.86083551  0.44170358     0.00200
Br1572     Br  0.97039348  0.88313029  0.30999057    -0.04100
C1573       C  0.98959677  0.29220914  0.78030466    -0.11500
C1574       C  0.96695492  0.29655233  0.80184913     0.03900
C1575       C  0.96932194  0.31978619  0.82246612    -0.12100
C1576       C  0.99411774  0.33893394  0.82219246     0.18800
C1577       C  0.01601666  0.33576496  0.79973262    -0.09100
C1578       C  0.01363181  0.31245107  0.77888498    -0.02100
H1579       H  0.95218468  0.32236720  0.83944444     0.05300
C1580       C  0.99690891  0.36119924  0.84637820     0.20800
H1581       H  0.03134928  0.30915496  0.76265485     0.10500
C1582       C  0.01684470  0.35591139  0.87012487    -0.15400
C1583       C  0.01811977  0.37537377  0.89464057     0.03500
C1584       C  0.99888085  0.40034079  0.89569671    -0.10800
C1585       C  0.97935363  0.40576078  0.87160341    -0.00800
C1586       C  0.97826610  0.38646125  0.84712361    -0.06000
H1587       H  0.03137978  0.33653385  0.86958752     0.06500
H1588       H  0.96478186  0.42513176  0.87184240     0.09900
Br1589     Br  0.04963076  0.36240539  0.79736821    -0.05700
Br1590     Br  0.93273972  0.27070741  0.80474997    -0.02600
Br1591     Br  0.04788500  0.36809734  0.92482506     0.00200
Br1592     Br  0.95145580  0.39571768  0.81485160    -0.04100
C1593       C  0.00046451  0.21396948  0.70091352    -0.11500
C1594       C  0.97531378  0.20784506  0.68286869     0.03900
C1595       C  0.97721349  0.18642719  0.66015753    -0.12100
C1596       C  0.00357792  0.16997773  0.65585540     0.18800
C1597       C  0.02897155  0.17652558  0.67330173    -0.09100
C1598       C  0.02732469  0.19853326  0.69545537    -0.02100
H1599       H  0.95747888  0.18122014  0.64703838     0.05300
C1600       C  0.00359555  0.14459436  0.63472000     0.20800
H1601       H  0.04652084  0.20223823  0.70982477     0.10500
C1602       C  0.01949879  0.14706284  0.60788541    -0.15400
C1603       C  0.02034168  0.12338306  0.58756801     0.03500
C1604       C  0.00519934  0.09624188  0.59417978    -0.10800
C1605       C  0.98969040  0.09372809  0.62139952    -0.00800
C1606       C  0.98849030  0.11774605  0.64140396    -0.06000
H1607       H  0.03128287  0.16761449  0.60270936     0.06500
H1608       H  0.97760229  0.07339412  0.62670791     0.09900
Br1609     Br  0.06518846  0.15363883  0.66985134    -0.05700
Br1610     Br  0.93667715  0.22431366  0.69119212    -0.02600
Br1611     Br  0.04328727  0.12984760  0.55167840     0.00200
Br1612     Br  0.96574030  0.11301155  0.67750569    -0.04100
C1613       C  0.99895719  0.59505130  0.89529416    -0.11500
C1614       C  0.98106421  0.59118734  0.86944179     0.03900
C1615       C  0.98385449  0.61101820  0.84538921    -0.12100
C1616       C  0.00425396  0.63471879  0.84657671     0.18800
C1617       C  0.02150118  0.63908678  0.87258164    -0.09100
C1618       C  0.01871126  0.61936345  0.89669704    -0.02100
H1619       H  0.97001923  0.60800814  0.82570124     0.05300
C1620       C  0.00629810  0.65565142  0.82115457     0.20800
H1621       H  0.03267245  0.62253702  0.91624777     0.10500
C1622       C  0.98742410  0.68057389  0.82075694    -0.15400
C1623       C  0.99125408  0.70301068  0.79936713     0.03500
C1624       C  0.01430788  0.70067369  0.77789022    -0.10800
C1625       C  0.03179388  0.67464932  0.77693668    -0.00800
C1626       C  0.02789089  0.65212033  0.79845720    -0.06000
H1627       H  0.97042934  0.68313291  0.83788161     0.06500
H1628       H  0.04966454  0.67268275  0.76065574     0.09900
Br1629     Br  0.04937149  0.67150562  0.87602941    -0.05700
Br1630     Br  0.95143904  0.56024037  0.86608557    -0.02600
Br1631     Br  0.96508885  0.73698552  0.80118115     0.00200
Br1632     Br  0.05351198  0.61775098  0.79729872    -0.04100
C1633       C  0.02760257  0.77670982  0.69773544    -0.11500
C1634       C  0.05014147  0.79543478  0.68595147     0.03900
C1635       C  0.04283581  0.81712703  0.66459078    -0.12100
C1636       C  0.01310856  0.82114468  0.65519151     0.18800
C1637       C  0.99079503  0.80159904  0.66601191    -0.09100
C1638       C  0.99822912  0.77942215  0.68688686    -0.02100
H1639       H  0.06027407  0.83166330  0.65601295     0.05300
C1640       C  0.00603935  0.84614693  0.63449996     0.20800
H1641       H  0.98055071  0.76575343  0.69635627     0.10500
C1642       C  0.99658603  0.83984174  0.60535489    -0.15400
C1643       C  0.99195772  0.86273399  0.58445154     0.03500
C1644       C  0.99754004  0.89302746  0.59242510    -0.10800
C1645       C  0.00581600  0.89918032  0.62219191    -0.00800
C1646       C  0.00992422  0.87616704  0.64308596    -0.06000
H1647       H  0.99313387  0.81682017  0.59869711     0.06500
H1648       H  0.00979491  0.92197834  0.62924739     0.09900
Br1649     Br  0.94941391  0.80624681  0.65547747    -0.05700
Br1650     Br  0.09101894  0.79310505  0.69904932    -0.02600
Br1651     Br  0.97734508  0.85014701  0.54598322     0.00200
Br1652     Br  0.02042477  0.88688135  0.68329551    -0.04100
C1653       C  0.20189069  0.71253408  0.49194524    -0.11500
C1654       C  0.19912873  0.69626426  0.46518095     0.03900
C1655       C  0.17806280  0.67325490  0.46311047    -0.12100
C1656       C  0.15927250  0.66660047  0.48737527     0.18800
C1657       C  0.16042721  0.68456494  0.51323647    -0.09100
C1658       C  0.18175599  0.70734977  0.51539032    -0.02100
H1659       H  0.17697317  0.65993547  0.44292232     0.05300
C1660       C  0.13953614  0.64014644  0.48605702     0.20800
H1661       H  0.18382367  0.71979202  0.53606354     0.10500
C1662       C  0.14466030  0.61628154  0.50588533    -0.15400
C1663       C  0.12477072  0.59217497  0.50742411     0.03500
C1664       C  0.09952902  0.59161362  0.48855957    -0.10800
C1665       C  0.09513394  0.61488273  0.46786775    -0.00800
C1666       C  0.11497014  0.63898413  0.46640003    -0.06000
H1667       H  0.16361370  0.61700898  0.52101745     0.06500
H1668       H  0.07578341  0.61461744  0.45321579     0.09900
Br1669     Br  0.13391847  0.67817131  0.54645908    -0.05700
Br1670     Br  0.22438494  0.70438960  0.43136660    -0.02600
Br1671     Br  0.13129645  0.56240776  0.53776184     0.00200
Br1672     Br  0.10650701  0.67061405  0.43859611    -0.04100
C1673       C  0.89396198  0.40072487  0.49969626    -0.11500
C1674       C  0.89326176  0.37847433  0.47751000     0.03900
C1675       C  0.87329082  0.35466090  0.48013643    -0.12100
C1676       C  0.85353322  0.35288089  0.50443879     0.18800
C1677       C  0.85353106  0.37568030  0.52616418    -0.09100
C1678       C  0.87374329  0.39945849  0.52365520    -0.02100
H1679       H  0.87289954  0.33759186  0.46297559     0.05300
C1680       C  0.83203762  0.32788656  0.50553452     0.20800
H1681       H  0.87416724  0.41657679  0.54076755     0.10500
C1682       C  0.83489236  0.30557294  0.52746304    -0.15400
C1683       C  0.81400757  0.28222444  0.52931003     0.03500
C1684       C  0.79064762  0.28040120  0.50815421    -0.10800
C1685       C  0.78849923  0.30239339  0.48579151    -0.00800
C1686       C  0.80858532  0.32622714  0.48466023    -0.06000
H1687       H  0.85271287  0.30700889  0.54386179     0.06500
H1688       H  0.76991443  0.30198502  0.47018833     0.09900
Br1689     Br  0.82601323  0.37565752  0.55911885     0.02700
Br1690     Br  0.91813075  0.38049417  0.44249878    -0.02600
Br1691     Br  0.81620418  0.25606484  0.56321677     0.00200
Br1692     Br  0.80125476  0.35770057  0.45630485    -0.04100
C1693       C  0.20034953  0.27650649  0.50964354    -0.11500
C1694       C  0.18104870  0.27868069  0.48483641     0.03900
C1695       C  0.15801382  0.29984752  0.48493046    -0.12100
C1696       C  0.15395474  0.31888570  0.50949077     0.18800
C1697       C  0.17186255  0.31524407  0.53511654    -0.09100
C1698       C  0.19518936  0.29453154  0.53478835    -0.02100
H1699       H  0.14412509  0.30248757  0.46521878     0.05300
C1700       C  0.13256228  0.34381107  0.50705751     0.20800
H1701       H  0.21025715  0.29337764  0.55377134     0.10500
C1702       C  0.10589816  0.34283820  0.52343958    -0.15400
C1703       C  0.08518992  0.36614086  0.52154904     0.03500
C1704       C  0.09095550  0.39087391  0.50259390    -0.10800
C1705       C  0.11800410  0.39199006  0.48664641    -0.00800
C1706       C  0.13875040  0.36872121  0.48875747    -0.06000
H1707       H  0.10132486  0.32395083  0.53795428     0.06500
H1708       H  0.12292821  0.41090371  0.47228627     0.09900
Br1709     Br  0.16683855  0.33946524  0.57016045    -0.05700
Br1710     Br  0.18740070  0.25618602  0.44894984    -0.02600
Br1711     Br  0.05065297  0.36350188  0.54704402     0.00200
Br1712     Br  0.17558520  0.37233991  0.46689770    -0.04100
C1713       C  0.90353566  0.60110449  0.50261969    -0.11500
C1714       C  0.87471578  0.59980200  0.48957997     0.03900
C1715       C  0.85543156  0.62426413  0.49192877    -0.12100
C1716       C  0.86432691  0.65035042  0.50673385     0.18800
C1717       C  0.89301015  0.65199402  0.51951707    -0.09100
C1718       C  0.91235207  0.62749489  0.51741759    -0.02100
H1719       H  0.83334804  0.62305725  0.48191771     0.05300
C1720       C  0.84272660  0.67510651  0.50912909     0.20800
H1721       H  0.93436939  0.62908899  0.52751022     0.10500
C1722       C  0.82549776  0.67752268  0.53518739    -0.15400
C1723       C  0.80104607  0.69695760  0.53630654     0.03500
C1724       C  0.79445721  0.71539518  0.51152852    -0.10800
C1725       C  0.81279252  0.71415981  0.48608053    -0.00800
C1726       C  0.83637341  0.69364644  0.48446825    -0.06000
H1727       H  0.82990467  0.66283184  0.55398139     0.06500
H1728       H  0.80723766  0.72736555  0.46650967     0.09900
Br1729     Br  0.90673988  0.68741668  0.53942352    -0.05700
Br1730     Br  0.86077894  0.56637412  0.46655332    -0.02600
Br1731     Br  0.77597184  0.69558727  0.57119838     0.00200
Br1732     Br  0.85739105  0.68951259  0.44726576    -0.04100
C1733       C  0.09377246  0.48795211  0.39267355    -0.11500
C1734       C  0.12345529  0.49907287  0.39429479     0.03900
C1735       C  0.14268718  0.49639092  0.36957521    -0.12100
C1736       C  0.13321345  0.48258428  0.34304648     0.18800
C1737       C  0.10391314  0.47122373  0.34137972    -0.09100
C1738       C  0.08447049  0.47419333  0.36584143    -0.02100
H1739       H  0.16530073  0.50509233  0.37106748     0.05300
C1740       C  0.15479143  0.47939578  0.31795994     0.20800
H1741       H  0.06200039  0.46522189  0.36395902     0.10500
C1742       C  0.17205181  0.45329503  0.31597078    -0.15400
C1743       C  0.19596229  0.45139371  0.29575043     0.03500
C1744       C  0.20276528  0.47574889  0.27687921    -0.10800
C1745       C  0.18414396  0.50099353  0.27733040    -0.00800
C1746       C  0.16041522  0.50303267  0.29781847    -0.06000
H1747       H  0.16779269  0.43488943  0.33117342     0.06500
H1748       H  0.18934531  0.52002343  0.26323818     0.09900
Br1749     Br  0.08965046  0.45124298  0.30622657    -0.05700
Br1750     Br  0.13902819  0.51930469  0.42881000    -0.02600
Br1751     Br  0.21965820  0.41562182  0.29557740     0.00200
Br1752     Br  0.13758581  0.53927308  0.29893035    -0.04100
C1753       C  0.89816402  0.50473251  0.39738186    -0.11500
C1754       C  0.86984130  0.49069205  0.39763358     0.03900
C1755       C  0.85094735  0.49350160  0.37276034    -0.12100
C1756       C  0.85972293  0.51032663  0.34771695     0.18800
C1757       C  0.88757636  0.52482498  0.34767586    -0.09100
C1758       C  0.90660920  0.52177679  0.37223483    -0.02100
H1759       H  0.82928438  0.48255637  0.37292441     0.05300
C1760       C  0.83879666  0.51383876  0.32251705     0.20800
H1761       H  0.92815893  0.53294827  0.37171180     0.10500
C1762       C  0.82067171  0.53930365  0.32151735    -0.15400
C1763       C  0.79831301  0.54209880  0.29990084     0.03500
C1764       C  0.79394455  0.51915446  0.27874024    -0.10800
C1765       C  0.81341824  0.49454344  0.27857051    -0.00800
C1766       C  0.83574861  0.49172421  0.30038481    -0.06000
H1767       H  0.82328850  0.55659313  0.33826145     0.06500
H1768       H  0.81003165  0.47656296  0.26273796     0.09900
Br1769     Br  0.90042224  0.54896040  0.31452249    -0.05700
Br1770     Br  0.85633754  0.46627762  0.43033270    -0.02600
Br1771     Br  0.77374262  0.57728519  0.30095119     0.00200
Br1772     Br  0.86064639  0.45680754  0.30009304    -0.04100
C1773       C  0.09756608  0.49684995  0.59509351    -0.11500
C1774       C  0.11656944  0.47244656  0.60078032     0.03900
C1775       C  0.13534967  0.47286080  0.62580402    -0.12100
C1776       C  0.13527438  0.49721273  0.64557191     0.18800
C1777       C  0.11650746  0.52180368  0.63968552    -0.09100
C1778       C  0.09780661  0.52141446  0.61458250    -0.02100
H1779       H  0.14997900  0.45399602  0.63000730     0.05300
C1780       C  0.15647142  0.49704063  0.67094660     0.20800
H1781       H  0.08313927  0.54023033  0.61037171     0.10500
C1782       C  0.18149710  0.51584476  0.66960107    -0.15400
C1783       C  0.20503286  0.51253522  0.68987241     0.03500
C1784       C  0.20356473  0.49033824  0.71230307    -0.10800
C1785       C  0.17756732  0.47291703  0.71500701    -0.00800
C1786       C  0.15414385  0.47597675  0.69433638    -0.06000
H1787       H  0.18347943  0.53205793  0.65166508     0.06500
H1788       H  0.17629710  0.45561229  0.73194229     0.09900
Br1789     Br  0.11479019  0.55573258  0.66583761    -0.05700
Br1790     Br  0.11619584  0.43731296  0.57625023    -0.02600
Br1791     Br  0.23934814  0.53800030  0.68490365     0.00200
Br1792     Br  0.12011650  0.44997503  0.69782355    -0.04100
C1793       C  0.90152892  0.49680130  0.59950876    -0.11500
C1794       C  0.90589229  0.51352339  0.62595336     0.03900
C1795       C  0.88633670  0.50982364  0.65008313    -0.12100
C1796       C  0.86246192  0.48967123  0.64822390     0.18800
C1797       C  0.85771502  0.47343323  0.62171924    -0.09100
C1798       C  0.87713207  0.47716332  0.59754002    -0.02100
H1799       H  0.88958316  0.52283856  0.67024369     0.05300
C1800       C  0.84140968  0.48684874  0.67329768     0.20800
H1801       H  0.87369854  0.46400352  0.57750316     0.10500
C1802       C  0.81368061  0.50112322  0.67088959    -0.15400
C1803       C  0.79085290  0.49486509  0.69115449     0.03500
C1804       C  0.79582651  0.47425954  0.71455671    -0.10800
C1805       C  0.82433040  0.46160746  0.71828392    -0.00800
C1806       C  0.84715940  0.46771022  0.69765541    -0.06000
H1807       H  0.80934051  0.51607968  0.65228524     0.06500
H1808       H  0.82831425  0.44574279  0.73618466     0.09900
Br1809     Br  0.82541557  0.44533628  0.61800619    -0.05700
Br1810     Br  0.93714569  0.54277617  0.62985922    -0.02600
Br1811     Br  0.75309593  0.51460868  0.68527111     0.00200
Br1812     Br  0.88495761  0.44779904  0.70204939    -0.04100
C1813       C  0.98506554  0.70836040  0.28485041    -0.11500
C1814       C  0.01133587  0.70215778  0.30121106     0.03900
C1815       C  0.01118370  0.67979394  0.32323017    -0.12100
C1816       C  0.98508164  0.66336623  0.32937096     0.18800
C1817       C  0.95881981  0.66956710  0.31305314    -0.09100
C1818       C  0.95909987  0.69162954  0.29075466    -0.02100
H1819       H  0.03158919  0.67498533  0.33545632     0.05300
C1820       C  0.98598399  0.63933684  0.35227284     0.20800
H1821       H  0.93883104  0.69619443  0.27823707     0.10500
C1822       C  0.97278573  0.64400661  0.38033515    -0.15400
C1823       C  0.97413146  0.62203740  0.40272029     0.03500
C1824       C  0.98933340  0.59475790  0.39727560    -0.10800
C1825       C  0.00167814  0.58991401  0.36873758    -0.00800
C1826       C  0.00014745  0.61188304  0.34643721    -0.06000
H1827       H  0.96134216  0.66487514  0.38481523     0.06500
H1828       H  0.01309251  0.56912988  0.36384481     0.09900
Br1829     Br  0.92226095  0.64817025  0.32022552    -0.05700
Br1830     Br  0.04833764  0.72224757  0.29308803    -0.02600
Br1831     Br  0.95319191  0.63027540  0.43937773     0.00200
Br1832     Br  0.01741272  0.60334847  0.30811143    -0.04100
C1833       C  0.99438911  0.39717106  0.59888582    -0.11500
C1834       C  0.01011064  0.40076116  0.62625496     0.03900
C1835       C  0.00932075  0.37817217  0.64804999    -0.12100
C1836       C  0.99323386  0.35168276  0.64341215     0.18800
C1837       C  0.97728548  0.34809578  0.61645353    -0.09100
C1838       C  0.97809589  0.37056526  0.59448850    -0.02100
H1839       H  0.02163230  0.38116212  0.66872701     0.05300
C1840       C  0.99338362  0.32807372  0.66691441     0.20800
H1841       H  0.96577381  0.36722695  0.57388243     0.10500
C1842       C  0.96723045  0.32253711  0.68346022    -0.15400
C1843       C  0.96656956  0.30042322  0.70571497     0.03500
C1844       C  0.99221066  0.28281122  0.71126094    -0.10800
C1845       C  0.01839665  0.28848660  0.69488083    -0.00800
C1846       C  0.01931987  0.31119601  0.67325052    -0.06000
H1847       H  0.94727490  0.33562815  0.67912735     0.06500
H1848       H  0.03834371  0.27545538  0.69937258     0.09900
Br1849     Br  0.95472042  0.31248254  0.60838084    -0.05700
Br1850     Br  0.03473188  0.43489535  0.63500758    -0.02600
Br1851     Br  0.92990095  0.29495928  0.72727541     0.00200
Br1852     Br  0.05652637  0.31827720  0.65300032    -0.04100
C1853       C  0.00227959  0.59496157  0.59763277    -0.11500
C1854       C  0.01112606  0.58849591  0.62753951     0.03900
C1855       C  0.01178429  0.61124482  0.64901604    -0.12100
C1856       C  0.00341802  0.64051291  0.64185416     0.18800
C1857       C  0.99389482  0.64703124  0.61257097    -0.09100
C1858       C  0.99348655  0.62447314  0.59078749    -0.02100
H1859       H  0.01936752  0.60616153  0.67149323     0.05300
C1860       C  0.00752218  0.66427403  0.66458940     0.20800
H1861       H  0.98615443  0.63012680  0.56837903     0.10500
C1862       C  0.03633465  0.67589565  0.66896442    -0.15400
C1863       C  0.04170382  0.69760827  0.69075784     0.03500
C1864       C  0.01801591  0.70838716  0.70852723    -0.10800
C1865       C  0.98919456  0.69642476  0.70460201    -0.00800
C1866       C  0.98383594  0.67443978  0.68280188    -0.06000
H1867       H  0.05483580  0.66771003  0.65559082     0.06500
H1868       H  0.97094575  0.70425299  0.71849296     0.09900
Br1869     Br  0.98185094  0.68663165  0.60133678    -0.05700
Br1870     Br  0.02386648  0.54975938  0.64122653    -0.02600
Br1871     Br  0.08217354  0.71041199  0.69687297     0.00200
Br1872     Br  0.94421240  0.65834701  0.67898016    -0.04100
C1873       C  0.00007355  0.39977703  0.09752891    -0.11500
C1874       C  0.01411922  0.40466403  0.12546546     0.03900
C1875       C  0.01071424  0.38376604  0.14838293    -0.12100
C1876       C  0.99362113  0.35798602  0.14396670     0.18800
C1877       C  0.98012135  0.35267121  0.11607002    -0.09100
C1878       C  0.98345578  0.37351080  0.09305027    -0.02100
H1879       H  0.02156046  0.38753065  0.16974038     0.05300
C1880       C  0.99087435  0.33639969  0.16851051     0.20800
H1881       H  0.97247475  0.36947072  0.07181434     0.10500
C1882       C  0.96463312  0.33586021  0.18572430    -0.15400
C1883       C  0.96047057  0.31387665  0.20759066     0.03500
C1884       C  0.98320354  0.29272138  0.21284620    -0.10800
C1885       C  0.00980813  0.29401020  0.19621280    -0.00800
C1886       C  0.01371296  0.31555014  0.17401278    -0.06000
H1887       H  0.94688513  0.35176364  0.18122269     0.06500
H1888       H  0.02687930  0.27707211  0.19933529     0.09900
Br1889     Br  0.95722582  0.31718429  0.10845442    -0.05700
Br1890     Br  0.03936770  0.43850138  0.13355438    -0.02600
Br1891     Br  0.92235008  0.31177675  0.22722480     0.00200
Br1892     Br  0.04925761  0.31399636  0.14988643    -0.04100
C1893       C  0.97751378  0.21620998  0.29359473    -0.11500
C1894       C  0.95468749  0.19642735  0.30262851     0.03900
C1895       C  0.95973910  0.17653984  0.32611084    -0.12100
C1896       C  0.98725193  0.17611935  0.34114377     0.18800
C1897       C  0.00944196  0.19721076  0.33355188    -0.09100
C1898       C  0.00446757  0.21710172  0.30978349    -0.02100
H1899       H  0.94238852  0.16068400  0.33214845     0.05300
C1900       C  0.99242692  0.15212940  0.36325054     0.20800
H1901       H  0.02221266  0.23217120  0.30300592     0.10500
C1902       C  0.01029016  0.12758649  0.35528389    -0.15400
C1903       C  0.01205957  0.10230475  0.37376741     0.03500
C1904       C  0.99570755  0.10140442  0.40076599    -0.10800
C1905       C  0.97852733  0.12648628  0.40898448    -0.00800
C1906       C  0.97666680  0.15157621  0.39043967    -0.06000
H1907       H  0.02233842  0.12783217  0.33423755     0.06500
H1908       H  0.96604577  0.12640981  0.42978571     0.09900
Br1909     Br  0.04675127  0.19927031  0.35473313    -0.05700
Br1910     Br  0.91625801  0.19540834  0.28339801    -0.02600
Br1911     Br  0.03801583  0.07039879  0.36157517     0.00200
Br1912     Br  0.95211857  0.18454127  0.40286216    -0.04100
C1913       C  0.98158422  0.28445850  0.28220776    -0.11500
C1914       C  0.00850671  0.29935450  0.28901384     0.03900
C1915       C  0.00908340  0.32099264  0.31173348    -0.12100
C1916       C  0.98302935  0.32816069  0.32794369     0.18800
C1917       C  0.95600734  0.31348465  0.32064531    -0.09100
C1918       C  0.95559063  0.29169015  0.29820118    -0.02100
H1919       H  0.02999301  0.33212846  0.31695344     0.05300
C1920       C  0.98455123  0.35076359  0.35239251     0.20800
H1921       H  0.93485174  0.28018807  0.29312358     0.10500
C1922       C  0.96932105  0.37801746  0.34926272    -0.15400
C1923       C  0.97061899  0.39995055  0.37163069     0.03500
C1924       C  0.98799045  0.39516890  0.39772803    -0.10800
C1925       C  0.00262964  0.36751385  0.40112021    -0.00800
C1926       C  0.00103249  0.34548811  0.37880369    -0.06000
H1927       H  0.95614775  0.38218112  0.32932534     0.06500
H1928       H  0.01567856  0.36309748  0.42107975     0.09900
Br1929     Br  0.91921370  0.32154739  0.34123403    -0.05700
Br1930     Br  0.04510716  0.28986064  0.26879660    -0.02600
Br1931     Br  0.94628325  0.43494527  0.36606249     0.00200
Br1932     Br  0.02094404  0.30809906  0.38573317    -0.04100
loop_ 
_geom_bond_atom_site_label_1 
_geom_bond_atom_site_label_2 
_geom_bond_distance 
_geom_bond_site_symmetry_2 
_ccdc_geom_bond_type 
N1            C5   1.355       .  A
N1            C2   1.356       .  A
N1         C1913   1.441       .  S
C2            C3   1.383       .  A
C2         C1893   1.474       .  S
C3            C4   1.370       .  A
C3            H6   1.082       .  S
C4            C5   1.380       .  A
C4            H7   1.082       .  S
C5         C1884   1.466       .  S
O8          Zr44   2.449       .  S
O8           C19   1.294       .  A
O9          Zr43   2.440       .  S
O9           C20   1.291       .  A
O10         Zr16   2.422   1_455  S
O10          C21   1.289       .  A
O11         Zr16   2.422       .  S
O11          C22   1.289       .  A
O12         Zr46   2.438       .  S
O12          C22   1.292       .  A
O13         Zr45   2.450       .  S
O13          C21   1.295       .  A
O14         Zr16   2.464       .  S
O14          C20   1.297       .  A
O15         Zr16   2.457       .  S
O15          C19   1.296       .  A
Zr16         O17   2.336       .  S
Zr16         O18   2.346   1_655  S
Zr16         O26   2.345       .  S
Zr16         O24   2.342   1_655  S
O17         Zr43   2.335       .  S
O17         Zr46   2.345       .  S
O18         Zr44   2.338   1_455  S
O18         Zr45   2.345       .  S
C19        C1924   1.494       .  S
C20        C1833   1.496       .  S
C21        C1704   1.475       .  S
C22        C1673   1.463       .  S
H23          O24   0.966       .  S
O24         Zr43   2.333   1_455  S
O24         Zr45   2.350       .  S
H25          O26   0.967       .  S
O26         Zr44   2.341       .  S
O26         Zr46   2.348       .  S
O27         Zr43   2.433   1_455  S
O27          C50   1.289       .  A
O28         Zr44   2.448       .  S
O28          C51   1.294       .  A
O29         Zr45   2.455       .  S
O29          C52   1.295       .  A
O30         Zr46   2.445       .  S
O30          C53   1.294       .  A
O31         Zr46   2.457       .  S
O31          C54   1.295       .  A
O32         Zr45   2.465       .  S
O32          C55   1.297       .  A
O33         Zr47   2.420   1_455  S
O33          C56   1.289       .  A
O34         Zr47   2.424       .  S
O34          C57   1.290       .  A
O35         Zr45   2.448       .  S
O35          C56   1.294       .  A
O36         Zr46   2.451       .  S
O36          C57   1.294       .  A
O37         Zr43   2.419   1_455  S
O37          C52   1.288       .  A
O38         Zr44   2.438   1_455  S
O38          C55   1.293       .  A
O39         Zr44   2.413       .  S
O39          C54   1.288       .  A
O40         Zr43   2.415       .  S
O40          C53   1.287       .  A
O41         Zr47   2.462   1_455  S
O41          C50   1.297       .  A
O42         Zr47   2.440       .  S
O42          C51   1.292       .  A
Zr43         O49   2.338   1_655  S
Zr43         O61   2.333       .  S
Zr44         O48   2.341       .  S
Zr44         O59   2.335   1_655  S
Zr45         O49   2.350       .  S
Zr45         O59   2.347       .  S
Zr46         O48   2.335       .  S
Zr46         O61   2.342       .  S
Zr47         O48   2.336       .  S
Zr47         O49   2.337   1_655  S
Zr47         O61   2.335       .  S
Zr47         O59   2.351   1_655  S
C50        C1853   1.498       .  S
C51        C1824   1.489       .  S
C52        C1773   1.468       .  S
C53        C1793   1.469       .  S
C54        C1753   1.477       .  S
C55        C1733   1.496       .  S
C56        C1664   1.470       .  S
C57        C1713   1.482       .  S
H58          O59   0.967       .  S
H60          O61   0.966       .  S
N62          C66   1.359       .  A
N62          C63   1.356       .  A
N62        C1864   1.442       .  S
C63          C64   1.382       .  A
C63        C1624   1.476       .  S
C64          C65   1.373       .  A
C64          H67   1.082       .  S
C65          C66   1.382       .  A
C65          H68   1.082       .  S
C66        C1633   1.478       .  S
N69          C73   1.359       .  A
N69          C70   1.361       .  A
N69        C1844   1.443       .  S
C70          C71   1.381       .  A
C70        C1593   1.480   1_655  S
C71          C72   1.371       .  A
C71          H74   1.082   1_655  S
C72          C73   1.382       .  A
C72          H75   1.082       .  S
C73        C1573   1.477       .  S
N76          C80   1.356       .  A
N76          C77   1.356       .  A
N76        C1813   1.443       .  S
C77          C78   1.381       .  A
C77        C1544   1.469       .  S
C78          C79   1.367       .  A
C78          H81   1.082       .  S
C79          C80   1.380       .  A
C79          H82   1.082       .  S
C80        C1553   1.465       .  S
O83        Zr119   2.471   1_545  S
O83          C94   1.298       .  A
O84        Zr118   2.465   1_445  S
O84          C95   1.298       .  A
O85         Zr91   2.433       .  S
O85          C96   1.290       .  A
O86         Zr91   2.447   1_455  S
O86          C97   1.293       .  A
O87        Zr121   2.445   1_545  S
O87          C97   1.292       .  A
O88        Zr120   2.458   1_545  S
O88          C96   1.296       .  A
O89         Zr91   2.407   1_455  S
O89          C95   1.285       .  A
O90         Zr91   2.407       .  S
O90          C94   1.287       .  A
Zr91         O92   2.332   1_655  S
Zr91         O93   2.341       .  S
Zr91        O101   2.332   1_655  S
Zr91         O99   2.334       .  S
O92        Zr118   2.348   1_445  S
O92        Zr121   2.337   1_545  S
O93        Zr119   2.342   1_545  S
O93        Zr120   2.340   1_545  S
C94        C1904   1.481       .  S
C95        C1604   1.482       .  S
C96        C1504   1.484       .  S
C97        C1524   1.483       .  S
H98          O99   0.965       .  S
O99        Zr118   2.341   1_545  S
O99        Zr120   2.343   1_545  S
H100        O101   0.966       .  S
O101       Zr119   2.350   1_445  S
O101       Zr121   2.342   1_545  S
O102       Zr118   2.464       .  S
O102        C125   1.298       .  A
O103       Zr119   2.457       .  S
O103        C126   1.297   1_655  A
O104       Zr120   2.406       .  S
O104        C127   1.288       .  A
O105       Zr121   2.407       .  S
O105        C128   1.287       .  A
O106       Zr121   2.413       .  S
O106        C129   1.287       .  A
O107       Zr120   2.415       .  S
O107        C130   1.289       .  A
O108       Zr122   2.440       .  S
O108        C131   1.290       .  A
O109       Zr122   2.442   1_455  S
O109        C132   1.293       .  A
O110       Zr120   2.473       .  S
O110        C131   1.299       .  A
O111       Zr121   2.449       .  S
O111        C132   1.293       .  A
O112       Zr118   2.456       .  S
O112        C127   1.295       .  A
O113       Zr119   2.475       .  S
O113        C130   1.299       .  A
O114       Zr119   2.458   1_455  S
O114        C129   1.297       .  A
O115       Zr118   2.450   1_455  S
O115        C128   1.295       .  A
O116       Zr122   2.425       .  S
O116        C125   1.288       .  A
O117       Zr122   2.402       .  S
O117        C126   1.284   1_655  A
Zr118       O124   2.349       .  S
Zr118       O136   2.346   1_655  S
Zr119       O123   2.352   1_655  S
Zr119       O134   2.354       .  S
Zr120       O124   2.339       .  S
Zr120       O134   2.334       .  S
Zr121       O123   2.331       .  S
Zr121       O136   2.340       .  S
Zr122       O123   2.338   1_655  S
Zr122       O124   2.333       .  S
Zr122       O136   2.329   1_655  S
Zr122       O134   2.342       .  S
C125       C1644   1.497       .  S
C126       C1564   1.476       .  S
C127       C1373   1.487   1_565  S
C128       C1393   1.466       .  S
C129       C1424   1.474       .  S
C130       C1433   1.490       .  S
C131       C1484   1.505       .  S
C132       C1453   1.493       .  S
H133        O134   0.966       .  S
H135        O136   0.966       .  S
N137        C141   1.356       .  A
N137        C138   1.359       .  A
N137       C1513   1.448       .  S
C138        C139   1.382       .  A
C138       C1693   1.472       .  S
C139        C140   1.369       .  A
C139        H142   1.082       .  S
C140        C141   1.379       .  A
C140        H143   1.082       .  S
C141       C1364   1.465       .  S
N144        C148   1.357       .  A
N144        C145   1.361       .  A
N144       C1493   1.443       .  S
C145        C146   1.382       .  A
C145       C1684   1.476       .  S
C146        C147   1.369       .  A
C146        H149   1.082       .  S
C147        C148   1.380       .  A
C147        H150   1.082       .  S
C148       C1333   1.474       .  S
N151        C155   1.357       .  A
N151        C152   1.355       .  A
N151       C1473   1.442       .  S
C152        C153   1.382       .  A
C152       C1324   1.473       .  S
C153        C154   1.371       .  A
C153        H156   1.082       .  S
C154        C155   1.382       .  A
C154        H157   1.082       .  S
C155       C1724   1.473       .  S
N158        C162   1.358       .  A
N158        C159   1.355       .  A
N158       C1464   1.443       .  S
C159        C160   1.380       .  A
C159       C1653   1.469       .  S
C160        C161   1.370       .  A
C160        H163   1.082       .  S
C161        C162   1.383       .  A
C161        H164   1.082       .  S
C162       C1304   1.475       .  S
N165        C169   1.356       .  A
N165        C166   1.358       .  A
N165       C1273   1.439       .  S
C166        C167   1.384       .  A
C166       C1444   1.483       .  S
C167        C168   1.371       .  A
C167        H170   1.082       .  S
C168        C169   1.380       .  A
C168        H171   1.082       .  S
C169       C1253   1.475       .  S
O172       Zr208   2.449       .  S
O172        C183   1.295       .  A
O173       Zr207   2.463       .  S
O173        C184   1.297       .  A
O174       Zr180   2.448       .  S
O174        C185   1.293       .  A
O175       Zr180   2.445   1_545  S
O175        C186   1.292       .  A
O176       Zr210   2.441   1_545  S
O176        C186   1.293       .  A
O177       Zr209   2.452       .  S
O177        C185   1.294       .  A
O178       Zr180   2.417       .  S
O178        C184   1.289       .  A
O179       Zr180   2.411   1_545  S
O179        C183   1.287       .  A
Zr180       O181   2.340       .  S
Zr180       O182   2.339   1_565  S
Zr180       O190   2.339   1_565  S
Zr180       O188   2.334       .  S
O181       Zr207   2.347       .  S
O181       Zr210   2.340       .  S
O182       Zr208   2.348       .  S
O182       Zr209   2.333   1_545  S
C183       C1353   1.470       .  S
C184       C1293   1.482       .  S
C185       C1193   1.489       .  S
C186       C1233   1.488       .  S
H187        O188   0.965       .  S
O188       Zr207   2.350       .  S
O188       Zr209   2.339       .  S
H189        O190   0.966       .  S
O190       Zr208   2.349       .  S
O190       Zr210   2.341   1_545  S
O191       Zr207   2.466       .  S
O191        C214   1.297       .  A
O192       Zr208   2.466       .  S
O192        C215   1.297       .  A
O193       Zr209   2.420       .  S
O193        C216   1.289       .  A
O194       Zr210   2.424       .  S
O194        C217   1.290       .  A
O195       Zr210   2.425   1_545  S
O195        C218   1.290       .  A
O196       Zr209   2.425   1_545  S
O196        C219   1.290       .  A
O197       Zr211   2.446       .  S
O197        C220   1.293       .  A
O198       Zr211   2.458       .  S
O198        C221   1.295       .  A
O199       Zr209   2.439       .  S
O199        C220   1.293       .  A
O200       Zr210   2.449       .  S
O200        C221   1.294       .  A
O201       Zr207   2.445       .  S
O201        C216   1.294       .  A
O202       Zr208   2.448       .  S
O202        C219   1.294       .  A
O203       Zr208   2.443       .  S
O203        C218   1.294       .  A
O204       Zr207   2.449       .  S
O204        C217   1.294       .  A
O205       Zr211   2.406       .  S
O205        C214   1.287       .  A
O206       Zr211   2.412   1_545  S
O206        C215   1.288       .  A
Zr207       O213   2.344       .  S
Zr207       O225   2.351       .  S
Zr208       O212   2.342       .  S
Zr208       O223   2.337       .  S
Zr209       O213   2.342       .  S
Zr209       O223   2.342   1_565  S
Zr210       O212   2.336   1_565  S
Zr210       O225   2.342       .  S
Zr211       O212   2.330   1_565  S
Zr211       O213   2.339       .  S
Zr211       O225   2.336       .  S
Zr211       O223   2.334   1_565  S
C214       C1313   1.477       .  S
C215       C1344   1.490       .  S
C216       C1144   1.466       .  S
C217       C1173   1.477       .  S
C218       C1164   1.475       .  S
C219       C1113   1.476       .  S
C220       C1284   1.484       .  S
C221       C1224   1.501       .  S
H222        O223   0.965       .  S
H224        O225   0.966       .  S
N226        C230   1.355       .  A
N226        C227   1.353       .  A
N226       C1244   1.440       .  S
C227        C228   1.381       .  A
C227       C1104   1.470       .  S
C228        C229   1.370       .  A
C228        H231   1.082       .  S
C229        C230   1.382       .  A
C229        H232   1.082       .  S
C230       C1404   1.470       .  S
N233        C237   1.354       .  A
N233        C234   1.357       .  A
N233       C1213   1.444       .  S
C234        C235   1.384       .  A
C234       C1384   1.472       .  S
C235        C236   1.370       .  A
C235        H238   1.082       .  S
C236        C237   1.379       .  A
C236        H239   1.082       .  S
C237       C1073   1.466       .  S
N240        C244   1.357       .  A
N240        C241   1.355       .  A
N240       C1204   1.443       .  S
C241        C242   1.382       .  A
C241       C1053   1.471       .  S
C242        C243   1.371       .  A
C242        H245   1.082       .  S
C243        C244   1.380       .  A
C243        H246   1.082       .  S
C244       C1413   1.469       .  S
O247       Zr283   2.454   1_544  S
O247        C258   1.295       .  A
O248       Zr282   2.455   1_554  S
O248        C259   1.295       .  A
O249       Zr255   2.446   1_545  S
O249        C260   1.293       .  A
O250       Zr255   2.456       .  S
O250        C261   1.295       .  A
O251       Zr285   2.460   1_554  S
O251        C261   1.296       .  A
O252       Zr284   2.450   1_554  S
O252        C260   1.294       .  A
O253       Zr255   2.428       .  S
O253        C259   1.291       .  A
O254       Zr255   2.427   1_545  S
O254        C258   1.290       .  A
Zr255       O256   2.341       .  S
Zr255       O257   2.344   1_565  S
Zr255       O265   2.340       .  S
Zr255       O263   2.342   1_565  S
O256       Zr282   2.349   1_554  S
O256       Zr285   2.337   1_554  S
O257       Zr283   2.343   1_544  S
O257       Zr284   2.339   1_554  S
C258       C1264   1.480       .  S
C259       C1064   1.476       .  S
C260       C1033   1.489       .  S
C261       C1013   1.494       .  S
H262        O263   0.966       .  S
O263       Zr282   2.350   1_544  S
O263       Zr284   2.344   1_554  S
H264        O265   0.966       .  S
O265       Zr283   2.350   1_554  S
O265       Zr285   2.342   1_554  S
O266       Zr282   2.463       .  S
O266        C289   1.296       .  A
O267       Zr283   2.451       .  S
O267        C290   1.295       .  A
O268       Zr284   2.411       .  S
O268        C291   1.287       .  A
O269       Zr285   2.422       .  S
O269        C292   1.289       .  A
O270       Zr285   2.423       .  S
O270        C293   1.289       .  A
O271       Zr284   2.417       .  S
O271        C294   1.288       .  A
O272       Zr286   2.450   1_545  S
O272        C295   1.294       .  A
O273       Zr286   2.444       .  S
O273        C296   1.293       .  A
O274       Zr284   2.461       .  S
O274        C295   1.295       .  A
O275       Zr285   2.452       .  S
O275        C296   1.294       .  A
O276       Zr282   2.449   1_545  S
O276        C291   1.295       .  A
O277       Zr283   2.448   1_545  S
O277        C294   1.294       .  A
O278       Zr283   2.446       .  S
O278        C293   1.293       .  A
O279       Zr282   2.458       .  S
O279        C292   1.297       .  A
O280       Zr286   2.412       .  S
O280        C289   1.288       .  A
O281       Zr286   2.422       .  S
O281        C290   1.289       .  A
Zr282       O288   2.346   1_565  S
Zr282       O300   2.346       .  S
Zr283       O287   2.343       .  S
Zr283       O298   2.342   1_565  S
Zr284       O288   2.337       .  S
Zr284       O298   2.335       .  S
Zr285       O287   2.339       .  S
Zr285       O300   2.345       .  S
Zr286       O287   2.337       .  S
Zr286       O288   2.339   1_565  S
Zr286       O300   2.339       .  S
Zr286       O298   2.332   1_565  S
C289       C1093   1.485   1_565  S
C290       C1084   1.475       .  S
C291        C953   1.468       .  S
C292        C913   1.482       .  S
C293        C944   1.468       .  S
C294        C893   1.470       .  S
C295        C984   1.503       .  S
C296        C993   1.490       .  S
H297        O298   0.966       .  S
H299        O300   0.966       .  S
N301        C305   1.363       .  A
N301        C302   1.359       .  A
N301       C1044   1.444       .  S
C302        C303   1.381       .  A
C302       C1124   1.480       .  S
C303        C304   1.372       .  A
C303        H306   1.082       .  S
C304        C305   1.383       .  A
C304        H307   1.082       .  S
C305        C873   1.486       .  S
N308        C312   1.359       .  A
N308        C309   1.358       .  A
N308       C1024   1.447       .  S
C309        C310   1.379       .  A
C309        C853   1.468       .  S
C310        C311   1.368       .  A
C310        H313   1.082       .  S
C311        C312   1.383       .  A
C311        H314   1.083       .  S
C312       C1133   1.473       .  S
N315        C319   1.359       .  A
N315        C316   1.361       .  A
N315       C1004   1.446       .  S
C316        C317   1.380       .  A
C316        C844   1.475       .  S
C317        C318   1.367       .  A
C317        H320   1.082       .  S
C318        C319   1.382       .  A
C318        H321   1.082       .  S
C319       C1184   1.476       .  S
N322        C326   1.360       .  A
N322        C323   1.359       .  A
N322        C973   1.447       .  S
C323        C324   1.380       .  A
C323       C1153   1.470       .  S
C324        C325   1.369       .  A
C324        H327   1.082       .  S
C325        C326   1.381       .  A
C325        H328   1.082       .  S
C326        C824   1.474       .  S
O329       Zr365   2.440   1_554  S
O329        C340   1.294       .  A
O330       Zr364   2.442   1_554  S
O330        C341   1.293       .  A
O331       Zr337   2.448       .  S
O331        C342   1.294       .  A
O332       Zr337   2.450   1_655  S
O332        C343   1.294       .  A
O333       Zr367   2.439   1_554  S
O333        C343   1.292       .  A
O334       Zr366   2.457   1_554  S
O334        C342   1.295       .  A
O335       Zr337   2.431   1_655  S
O335        C341   1.292       .  A
O336       Zr337   2.417   1_655  S
O336        C340   1.288   1_655  A
Zr337       O338   2.335   1_455  S
Zr337       O339   2.342       .  S
Zr337       O347   2.337   1_455  S
Zr337       O345   2.334       .  S
O338       Zr364   2.344   1_554  S
O338       Zr367   2.331   1_554  S
O339       Zr365   2.345   1_554  S
O339       Zr366   2.334   1_554  S
C340       C1873   1.470       .  S
C341       C1533   1.473       .  S
C342        C773   1.495       .  S
C343        C793   1.487       .  S
H344        O345   0.965       .  S
O345       Zr364   2.353   1_454  S
O345       Zr366   2.341   1_554  S
H346        O347   0.965       .  S
O347       Zr365   2.351   1_654  S
O347       Zr367   2.330   1_554  S
O348       Zr364   2.458   1_455  S
O348        C371   1.297   1_455  A
O349       Zr365   2.458       .  S
O349        C372   1.296   1_455  A
O350       Zr366   2.411   1_554  S
O350        C373   1.289       .  A
O351       Zr367   2.407       .  S
O351        C374   1.287       .  A
O352       Zr367   2.408       .  S
O352        C375   1.287       .  A
O353       Zr366   2.413       .  S
O353        C376   1.288       .  A
O354       Zr368   2.445       .  S
O354        C377   1.292       .  A
O355       Zr368   2.448   1_655  S
O355        C378   1.294       .  A
O356       Zr366   2.454       .  S
O356        C377   1.296       .  A
O357       Zr367   2.431       .  S
O357        C378   1.288       .  A
O358       Zr364   2.452   1_454  S
O358        C373   1.294       .  A
O359       Zr365   2.459       .  S
O359        C376   1.296       .  A
O360       Zr365   2.457   1_655  S
O360        C375   1.296       .  A
O361       Zr364   2.463       .  S
O361        C374   1.297       .  A
O362       Zr368   2.412   1_655  S
O362        C371   1.287       .  A
O363       Zr368   2.416   1_655  S
O363        C372   1.288       .  A
Zr364       O370   2.347   1_655  S
Zr364       O382   2.343       .  S
Zr365       O369   2.340   1_455  S
Zr365       O380   2.341       .  S
Zr366       O370   2.342       .  S
Zr366       O380   2.339       .  S
Zr367       O369   2.337       .  S
Zr367       O382   2.335       .  S
Zr368       O369   2.336   1_455  S
Zr368       O370   2.343       .  S
Zr368       O382   2.334   1_455  S
Zr368       O380   2.333       .  S
C371       C1613   1.475       .  S
C372       C1584   1.476       .  S
C373        C704   1.479       .  S
C374        C664   1.480       .  S
C375        C684   1.478   1_556  S
C376        C713   1.480       .  S
C377        C753   1.498       .  S
C378        C733   1.498       .  S
H379        O380   0.965       .  S
H381        O382   0.965       .  S
N383        C387   1.354       .  A
N383        C384   1.357       .  A
N383        C804   1.440       .  S
C384        C385   1.383       .  A
C384       C1764   1.474       .  S
C385        C386   1.371       .  A
C385        H388   1.082       .  S
C386        C387   1.381       .  A
C386        H389   1.082       .  S
C387        C633   1.471       .  S
N390        C394   1.358       .  A
N390        C391   1.360       .  A
N390        C784   1.441       .  S
C391        C392   1.383       .  A
C391        C624   1.483       .  S
C392        C393   1.373       .  A
C392        H395   1.082       .  S
C393        C394   1.382       .  A
C393        H396   1.082       .  S
C394       C1744   1.481       .  S
N397        C401   1.357       .  A
N397        C398   1.355       .  A
N397        C764   1.441       .  S
C398        C399   1.382       .  A
C398        C604   1.474       .  S
C399        C400   1.372       .  A
C399        H402   1.082       .  S
C400        C401   1.383       .  A
C400        H403   1.082       .  S
C401       C1784   1.476       .  S
N404        C408   1.352       .  A
N404        C405   1.354       .  A
N404        C744   1.439       .  S
C405        C406   1.383       .  A
C405       C1804   1.471       .  S
C406        C407   1.373       .  A
C406        H409   1.082       .  S
C407        C408   1.381       .  A
C407        H410   1.082       .  S
C408        C573   1.468       .  S
N411        C415   1.357       .  A
N411        C412   1.356       .  A
N411        C553   1.445       .  S
C412        C413   1.382       .  A
C412        C724   1.470       .  S
C413        C414   1.368       .  A
C413        H416   1.082       .  S
C414        C415   1.381       .  A
C414        H417   1.082       .  S
C415        C964   1.467       .  S
O418       Zr454   2.460       .  S
O418        C429   1.296       .  A
O419       Zr453   2.457       .  S
O419        C430   1.297       .  A
O420       Zr426   2.444       .  S
O420        C431   1.292       .  A
O421       Zr426   2.436       .  S
O421        C432   1.291       .  A
O422       Zr456   2.451       .  S
O422        C432   1.295       .  A
O423       Zr455   2.455       .  S
O423        C431   1.295       .  A
O424       Zr426   2.422       .  S
O424        C430   1.288       .  A
O425       Zr426   2.434   1_554  S
O425        C429   1.291       .  A
Zr426       O427   2.340       .  S
Zr426       O428   2.332   1_556  S
Zr426       O436   2.337   1_556  S
Zr426       O434   2.343       .  S
O427       Zr453   2.346       .  S
O427       Zr456   2.332       .  S
O428       Zr454   2.345       .  S
O428       Zr455   2.340   1_554  S
C429        C884   1.485       .  S
C430        C813   1.490       .  S
C431        C564   1.496       .  S
C432        C493   1.486       .  S
H433        O434   0.965       .  S
O434       Zr453   2.353       .  S
O434       Zr455   2.344       .  S
H435        O436   0.965       .  S
O436       Zr454   2.346       .  S
O436       Zr456   2.346   1_554  S
O437       Zr453   2.468       .  S
O437        C460   1.298       .  A
O438       Zr454   2.454       .  S
O438        C461   1.296       .  A
O439       Zr455   2.419       .  S
O439        C462   1.289       .  A
O440       Zr456   2.430       .  S
O440        C463   1.291       .  A
O441       Zr456   2.420   1_554  S
O441        C464   1.290       .  A
O442       Zr455   2.418   1_554  S
O442        C465   1.289       .  A
O443       Zr457   2.437       .  S
O443        C466   1.292       .  A
O444       Zr457   2.450       .  S
O444        C467   1.294       .  A
O445       Zr455   2.452       .  S
O445        C466   1.294       .  A
O446       Zr456   2.449       .  S
O446        C467   1.293       .  A
O447       Zr453   2.465       .  S
O447        C462   1.297       .  A
O448       Zr454   2.460       .  S
O448        C465   1.297       .  A
O449       Zr454   2.454       .  S
O449        C464   1.295       .  A
O450       Zr453   2.454       .  S
O450        C463   1.295       .  A
O451       Zr457   2.413       .  S
O451        C460   1.287       .  A
O452       Zr457   2.416   1_554  S
O452        C461   1.287       .  A
Zr453       O459   2.343       .  S
Zr453       O471   2.350       .  S
Zr454       O458   2.347       .  S
Zr454       O469   2.348       .  S
Zr455       O459   2.338       .  S
Zr455       O469   2.347   1_556  S
Zr456       O458   2.337   1_556  S
Zr456       O471   2.342       .  S
Zr457       O458   2.331   1_556  S
Zr457       O459   2.338       .  S
Zr457       O471   2.336       .  S
Zr457       O469   2.341   1_556  S
C460        C833   1.480       .  S
C461        C864   1.479       .  S
C462        C593   1.482       .  S
C463        C584   1.479       .  S
C464        C644   1.477       .  S
C465        C613   1.475       .  S
C466        C513   1.484       .  S
C467        C533   1.494       .  S
H468        O469   0.966       .  S
H470        O471   0.965       .  S
N472        C476   1.357       .  A
N472        C473   1.356       .  A
N472        C544   1.439       .  S
C473        C474   1.382       .  A
C473        C933   1.475       .  S
C474        C475   1.372       .  A
C474        H477   1.082       .  S
C475        C476   1.382       .  A
C475        H478   1.082       .  S
C476        C653   1.476       .  S
N479        C483   1.361       .  A
N479        C480   1.359       .  A
N479        C524   1.448       .  S
C480        C481   1.378       .  A
C480        C924   1.470       .  S
C481        C482   1.367       .  A
C481        H484   1.082       .  S
C482        C483   1.383       .  A
C482        H485   1.082       .  S
C483        C693   1.473       .  S
N486        C490   1.354       .  A
N486        C487   1.354       .  A
N486        C504   1.441       .  S
C487        C488   1.382       .  A
C487        C673   1.470       .  S
C488        C489   1.372       .  A
C488        H491   1.082       .  S
C489        C490   1.380       .  A
C489        H492   1.082       .  S
C490        C904   1.466   1_554  S
C493        C494   1.416   1_556  A
C493        C498   1.406       .  A
C494        C495   1.401       .  A
C494       Br510   1.923       .  S
C495        C496   1.403   1_554  A
C495        H499   1.083       .  S
C496        C497   1.410       .  A
C496        C500   1.488       .  S
C497        C498   1.402       .  A
C497       Br509   1.919       .  S
C498        H501   1.083       .  S
C500        C502   1.405       .  A
C500        C506   1.412   1_556  A
C502        C503   1.402       .  A
C502        H507   1.083       .  S
C503        C504   1.407   1_556  A
C503       Br511   1.915       .  S
C504        C505   1.401       .  A
C505        C506   1.401       .  A
C505        H508   1.083       .  S
C506       Br512   1.919       .  S
C513        C514   1.414       .  A
C513        C518   1.405   1_556  A
C514        C515   1.405       .  A
C514       Br530   1.921       .  S
C515        C516   1.405       .  A
C515        H519   1.083       .  S
C516        C517   1.408   1_556  A
C516        C520   1.486       .  S
C517        C518   1.398       .  A
C517       Br529   1.919       .  S
C518        H521   1.084       .  S
C520        C522   1.402   1_556  A
C520        C526   1.408       .  A
C522        C523   1.400       .  A
C522        H527   1.084       .  S
C523        C524   1.413       .  A
C523       Br531   1.915       .  S
C524        C525   1.406   1_554  A
C525        C526   1.403       .  A
C525        H528   1.082       .  S
C526       Br532   1.918       .  S
C533        C534   1.417   1_556  A
C533        C538   1.409       .  A
C534        C535   1.403       .  A
C534       Br550   1.921       .  S
C535        C536   1.404   1_554  A
C535        H539   1.084       .  S
C536        C537   1.409       .  A
C536        C540   1.490       .  S
C537        C538   1.402       .  A
C537       Br549   1.920       .  S
C538        H541   1.083       .  S
C540        C542   1.405       .  A
C540        C546   1.413   1_556  A
C542        C543   1.401       .  A
C542        H547   1.083       .  S
C543        C544   1.406       .  A
C543       Br551   1.915       .  S
C544        C545   1.400   1_556  A
C545        C546   1.403       .  A
C545        H548   1.083       .  S
C546       Br552   1.918       .  S
C553        C554   1.411   1_556  A
C553        C558   1.403       .  A
C554        C555   1.406       .  A
C554       Br570   1.915       .  S
C555        C556   1.405   1_554  A
C555        H559   1.083       .  S
C556        C557   1.408       .  A
C556        C560   1.486       .  S
C557        C558   1.399       .  A
C557       Br569   1.917       .  S
C558        H561   1.083       .  S
C560        C562   1.401       .  A
C560        C566   1.407   1_556  A
C562        C563   1.402       .  A
C562        H567   1.084       .  S
C563        C564   1.419       .  A
C563       Br571   1.922       .  S
C564        C565   1.410   1_556  A
C565        C566   1.406       .  A
C565        H568   1.083       .  S
C566       Br572   1.918       .  S
C573        C574   1.403       .  A
C573        C578   1.400       .  A
C574        C575   1.398       .  A
C574       Br590   1.918       .  S
C575        C576   1.407       .  A
C575        H579   1.083       .  S
C576        C577   1.413       .  A
C576        C580   1.485       .  S
C577        C578   1.396       .  A
C577       Br589   1.919       .  S
C578        H581   1.084       .  S
C580        C582   1.402       .  A
C580        C586   1.414       .  A
C582        C583   1.397       .  A
C582        H587   1.083       .  S
C583        C584   1.412       .  A
C583       Br591   1.921       .  S
C584        C585   1.403       .  A
C585        C586   1.401       .  A
C585        H588   1.083       .  S
C586       Br592   1.922       .  S
C593        C594   1.411       .  A
C593        C598   1.409       .  A
C594        C595   1.401       .  A
C594       Br610   1.919       .  S
C595        C596   1.405       .  A
C595        H599   1.084       .  S
C596        C597   1.406       .  A
C596        C600   1.480       .  S
C597        C598   1.398       .  A
C597       Br609   1.920       .  S
C598        H601   1.084       .  S
C600        C602   1.403       .  A
C600        C606   1.410       .  A
C602        C603   1.398       .  A
C602        H607   1.083       .  S
C603        C604   1.408       .  A
C603       Br611   1.919       .  S
C604        C605   1.402       .  A
C605        C606   1.400       .  A
C605        H608   1.083       .  S
C606       Br612   1.919       .  S
C613        C614   1.409       .  A
C613        C618   1.405       .  A
C614        C615   1.402       .  A
C614       Br630   1.920       .  S
C615        C616   1.405       .  A
C615        H619   1.083       .  S
C616        C617   1.407       .  A
C616        C620   1.481       .  S
C617        C618   1.398       .  A
C617       Br629   1.918       .  S
C618        H621   1.084       .  S
C620        C622   1.399       .  A
C620        C626   1.410       .  A
C622        C623   1.396       .  A
C622        H627   1.084       .  S
C623        C624   1.413       .  A
C623       Br631   1.920       .  S
C624        C625   1.404       .  A
C625        C626   1.405       .  A
C625        H628   1.083       .  S
C626       Br632   1.917       .  S
C633        C634   1.407       .  A
C633        C638   1.402       .  A
C634        C635   1.394       .  A
C634       Br650   1.919       .  S
C635        C636   1.400       .  A
C635        H639   1.084       .  S
C636        C637   1.408       .  A
C636        C640   1.473       .  S
C637        C638   1.401       .  A
C637       Br649   1.918       .  S
C638        H641   1.083       .  S
C640        C642   1.404       .  A
C640        C646   1.402       .  A
C642        C643   1.401       .  A
C642        H647   1.084       .  S
C643        C644   1.412       .  A
C643       Br651   1.921       .  S
C644        C645   1.407       .  A
C645        C646   1.395       .  A
C645        H648   1.084       .  S
C646       Br652   1.918       .  S
C653        C654   1.408       .  A
C653        C658   1.405   1_556  A
C654        C655   1.395       .  A
C654       Br670   1.917       .  S
C655        C656   1.400       .  A
C655        H659   1.084       .  S
C656        C657   1.408   1_556  A
C656        C660   1.477       .  S
C657        C658   1.403       .  A
C657       Br669   1.919       .  S
C658        H661   1.083       .  S
C660        C662   1.406   1_556  A
C660        C666   1.403       .  A
C662        C663   1.403       .  A
C662        H667   1.083       .  S
C663        C664   1.411   1_554  A
C663       Br671   1.921       .  S
C664        C665   1.408       .  A
C665        C666   1.393       .  A
C665        H668   1.083       .  S
C666       Br672   1.919       .  S
C673        C674   1.408       .  A
C673        C678   1.402   1_554  A
C674        C675   1.395       .  A
C674       Br690   1.920       .  S
C675        C676   1.400       .  A
C675        H679   1.084       .  S
C676        C677   1.408   1_554  A
C676        C680   1.472       .  S
C677        C678   1.400       .  A
C677       Br689   1.919       .  S
C678        H681   1.083       .  S
C680        C682   1.403   1_554  A
C680        C686   1.403       .  A
C682        C683   1.399       .  A
C682        H687   1.084       .  S
C683        C684   1.411   1_556  A
C683       Br691   1.921       .  S
C684        C685   1.409       .  A
C685        C686   1.395       .  A
C685        H688   1.084       .  S
C686       Br692   1.920       .  S
C693        C694   1.412       .  A
C693        C698   1.403   1_554  A
C694        C695   1.393       .  A
C694       Br710   1.921       .  S
C695        C696   1.397       .  A
C695        H699   1.084       .  S
C696        C697   1.407   1_554  A
C696        C700   1.467       .  S
C697        C698   1.399       .  A
C697       Br709   1.918       .  S
C698        H701   1.083       .  S
C700        C702   1.402   1_554  A
C700        C706   1.399       .  A
C702        C703   1.399       .  A
C702        H707   1.084       .  S
C703        C704   1.413   1_556  A
C703       Br711   1.921       .  S
C704        C705   1.411       .  A
C705        C706   1.393       .  A
C705        H708   1.084       .  S
C706       Br712   1.919       .  S
C713        C714   1.412   1_556  A
C713        C718   1.409       .  A
C714        C715   1.400       .  A
C714       Br730   1.920       .  S
C715        C716   1.403   1_554  A
C715        H719   1.084       .  S
C716        C717   1.403       .  A
C716        C720   1.473       .  S
C717        C718   1.395       .  A
C717       Br729   1.920       .  S
C718        H721   1.084       .  S
C720        C722   1.401       .  A
C720        C726   1.408   1_556  A
C722        C723   1.394       .  A
C722        H727   1.084       .  S
C723        C724   1.408       .  A
C723       Br731   1.920       .  S
C724        C725   1.402   1_556  A
C725        C726   1.399       .  A
C725        H728   1.084       .  S
C726       Br732   1.917       .  S
C733        C734   1.425       .  A
C733        C738   1.411       .  A
C734        C735   1.401       .  A
C734       Br750   1.925       .  S
C735        C736   1.400       .  A
C735        H739   1.084       .  S
C736        C737   1.403       .  A
C736        C740   1.479       .  S
C737        C738   1.398       .  A
C737       Br749   1.918       .  S
C738        H741   1.083       .  S
C740        C742   1.405       .  A
C740        C746   1.406       .  A
C742        C743   1.404       .  A
C742        H747   1.083       .  S
C743        C744   1.409       .  A
C743       Br751   1.914       .  S
C744        C745   1.402       .  A
C745        C746   1.395       .  A
C745        H748   1.083       .  S
C746       Br752   1.919       .  S
C753        C754   1.420       .  A
C753        C758   1.409       .  A
C754        C755   1.405       .  A
C754       Br770   1.924       .  S
C755        C756   1.403       .  A
C755        H759   1.084       .  S
C756        C757   1.411       .  A
C756        C760   1.493       .  S
C757        C758   1.403       .  A
C757       Br769   1.920       .  S
C758        H761   1.083       .  S
C760        C762   1.408       .  A
C760        C766   1.413       .  A
C762        C763   1.405       .  A
C762        H767   1.083       .  S
C763        C764   1.406       .  A
C763       Br771   1.915       .  S
C764        C765   1.401       .  A
C765        C766   1.401       .  A
C765        H768   1.083       .  S
C766       Br772   1.920       .  S
C773        C774   1.417       .  A
C773        C778   1.409       .  A
C774        C775   1.403       .  A
C774       Br790   1.920       .  S
C775        C776   1.402       .  A
C775        H779   1.084       .  S
C776        C777   1.410       .  A
C776        C780   1.490       .  S
C777        C778   1.404       .  A
C777       Br789   1.920       .  S
C778        H781   1.083       .  S
C780        C782   1.405       .  A
C780        C786   1.412       .  A
C782        C783   1.401       .  A
C782        H787   1.083       .  S
C783        C784   1.406       .  A
C783       Br791   1.913       .  S
C784        C785   1.403       .  A
C785        C786   1.403       .  A
C785        H788   1.083       .  S
C786       Br792   1.919       .  S
C793        C794   1.413       .  A
C793        C798   1.407       .  A
C794        C795   1.402       .  A
C794       Br810   1.921       .  S
C795        C796   1.404       .  A
C795        H799   1.083       .  S
C796        C797   1.411       .  A
C796        C800   1.490       .  S
C797        C798   1.402       .  A
C797       Br809   1.921       .  S
C798        H801   1.084       .  S
C800        C802   1.406       .  A
C800        C806   1.413       .  A
C802        C803   1.401       .  A
C802        H807   1.083       .  S
C803        C804   1.406       .  A
C803       Br811   1.914       .  S
C804        C805   1.402       .  A
C805        C806   1.402       .  A
C805        H808   1.083       .  S
C806       Br812   1.919       .  S
C813        C814   1.423       .  A
C813        C818   1.407       .  A
C814        C815   1.400       .  A
C814       Br830   1.924       .  S
C815        C816   1.397       .  A
C815        H819   1.084       .  S
C816        C817   1.405       .  A
C816        C820   1.476       .  S
C817        C818   1.397       .  A
C817       Br829   1.917       .  S
C818        H821   1.083       .  S
C820        C822   1.402       .  A
C820        C826   1.405       .  A
C822        C823   1.401       .  A
C822        H827   1.083       .  S
C823        C824   1.409       .  A
C823       Br831   1.917       .  S
C824        C825   1.404       .  A
C825        C826   1.397       .  A
C825        H828   1.084       .  S
C826       Br832   1.918       .  S
C833        C834   1.417       .  A
C833        C838   1.404       .  A
C834        C835   1.395       .  A
C834       Br850   1.920       .  S
C835        C836   1.397       .  A
C835        H839   1.084       .  S
C836        C837   1.410       .  A
C836        C840   1.476       .  S
C837        C838   1.402       .  A
C837       Br849   1.918       .  S
C838        H841   1.083       .  S
C840        C842   1.403       .  A
C840        C846   1.405       .  A
C842        C843   1.402       .  A
C842        H847   1.083       .  S
C843        C844   1.409       .  A
C843       Br851   1.916       .  S
C844        C845   1.405       .  A
C845        C846   1.396       .  A
C845        H848   1.084       .  S
C846       Br852   1.920       .  S
C853        C854   1.407       .  A
C853        C858   1.400       .  A
C854        C855   1.399       .  A
C854       Br870   1.919       .  S
C855        C856   1.404       .  A
C855        H859   1.083       .  S
C856        C857   1.408       .  A
C856        C860   1.476       .  S
C857        C858   1.393       .  A
C857       Br869   1.920       .  S
C858        H861   1.083       .  S
C860        C862   1.398       .  A
C860        C866   1.410       .  A
C862        C863   1.395       .  A
C862        H867   1.084       .  S
C863        C864   1.417       .  A
C863       Br871   1.921       .  S
C864        C865   1.404       .  A
C865        C866   1.399       .  A
C865        H868   1.083       .  S
C866       Br872   1.920       .  S
C873        C874   1.410       .  A
C873        C878   1.408       .  A
C874        C875   1.406       .  A
C874       Br890   1.915       .  S
C875        C876   1.405       .  A
C875        H879   1.083       .  S
C876        C877   1.405       .  A
C876        C880   1.484       .  S
C877        C878   1.400       .  A
C877       Br889   1.919       .  S
C878        H881   1.084       .  S
C880        C882   1.401       .  A
C880        C886   1.410       .  A
C882        C883   1.401       .  A
C882        H887   1.083       .  S
C883        C884   1.414       .  A
C883       Br891   1.920       .  S
C884        C885   1.405       .  A
C885        C886   1.403       .  A
C885        H888   1.083       .  S
C886       Br892   1.918       .  S
C893        C894   1.413       .  A
C893        C898   1.401   1_556  A
C894        C895   1.396       .  A
C894       Br910   1.919       .  S
C895        C896   1.399       .  A
C895        H899   1.084       .  S
C896        C897   1.408   1_556  A
C896        C900   1.470       .  S
C897        C898   1.395       .  A
C897       Br909   1.919       .  S
C898        H901   1.084       .  S
C900        C902   1.403   1_556  A
C900        C906   1.406       .  A
C902        C903   1.397       .  A
C902        H907   1.084       .  S
C903        C904   1.407   1_554  A
C903       Br911   1.918       .  S
C904        C905   1.401       .  A
C905        C906   1.393       .  A
C905        H908   1.084       .  S
C906       Br912   1.919       .  S
C913        C914   1.418       .  A
C913        C918   1.405   1_556  A
C914        C915   1.397       .  A
C914       Br930   1.922       .  S
C915        C916   1.397       .  A
C915        H919   1.084       .  S
C916        C917   1.409   1_556  A
C916        C920   1.476       .  S
C917        C918   1.400       .  A
C917       Br929   1.919       .  S
C918        H921   1.083       .  S
C920        C922   1.403   1_556  A
C920        C926   1.407       .  A
C922        C923   1.399       .  A
C922        H927   1.083       .  S
C923        C924   1.406       .  A
C923       Br931   1.917       .  S
C924        C925   1.403   1_554  A
C925        C926   1.398       .  A
C925        H928   1.084       .  S
C926       Br932   1.918       .  S
C933        C934   1.408   1_556  A
C933        C938   1.402       .  A
C934        C935   1.395       .  A
C934       Br950   1.919       .  S
C935        C936   1.402   1_554  A
C935        H939   1.083       .  S
C936        C937   1.412       .  A
C936        C940   1.482       .  S
C937        C938   1.403       .  A
C937       Br949   1.920       .  S
C938        H941   1.083       .  S
C940        C942   1.406       .  A
C940        C946   1.410   1_556  A
C942        C943   1.400       .  A
C942        H947   1.083       .  S
C943        C944   1.407       .  A
C943       Br951   1.920       .  S
C944        C945   1.402   1_556  A
C945        C946   1.396       .  A
C945        H948   1.084       .  S
C946       Br952   1.919       .  S
C953        C954   1.414   1_556  A
C953        C958   1.402       .  A
C954        C955   1.395       .  A
C954       Br970   1.922       .  S
C955        C956   1.398   1_554  A
C955        H959   1.084       .  S
C956        C957   1.406       .  A
C956        C960   1.465       .  S
C957        C958   1.395       .  A
C957       Br969   1.918       .  S
C958        H961   1.084       .  S
C960        C962   1.402       .  A
C960        C966   1.402   1_556  A
C962        C963   1.399       .  A
C962        H967   1.084       .  S
C963        C964   1.408       .  A
C963       Br971   1.917       .  S
C964        C965   1.402   1_556  A
C965        C966   1.391       .  A
C965        H968   1.084       .  S
C966       Br972   1.919       .  S
C973        C974   1.411       .  A
C973        C978   1.404       .  A
C974        C975   1.404       .  A
C974       Br990   1.916       .  S
C975        C976   1.404       .  A
C975        H979   1.083       .  S
C976        C977   1.410       .  A
C976        C980   1.491       .  S
C977        C978   1.405       .  A
C977       Br989   1.916       .  S
C978        H981   1.083       .  S
C980        C982   1.403       .  A
C980        C986   1.406       .  A
C982        C983   1.407       .  A
C982        H987   1.083       .  S
C983        C984   1.420       .  A
C983       Br991   1.922       .  S
C984        C985   1.412       .  A
C985        C986   1.404       .  A
C985        H988   1.083       .  S
C986       Br992   1.919       .  S
C993        C994   1.414       .  A
C993        C998   1.407       .  A
C994        C995   1.403       .  A
C994      Br1010   1.920       .  S
C995        C996   1.404       .  A
C995        H999   1.083       .  S
C996        C997   1.411       .  A
C996       C1000   1.491       .  S
C997        C998   1.404       .  A
C997      Br1009   1.920       .  S
C998       H1001   1.084       .  S
C1000      C1002   1.405       .  A
C1000      C1006   1.411       .  A
C1002      C1003   1.403       .  A
C1002      H1007   1.083       .  S
C1003      C1004   1.409       .  A
C1003     Br1011   1.914       .  S
C1004      C1005   1.404       .  A
C1005      C1006   1.404       .  A
C1005      H1008   1.083       .  S
C1006     Br1012   1.919       .  S
C1013      C1014   1.414       .  A
C1013      C1018   1.408       .  A
C1014      C1015   1.405       .  A
C1014     Br1030   1.919       .  S
C1015      C1016   1.404       .  A
C1015      H1019   1.083       .  S
C1016      C1017   1.412       .  A
C1016      C1020   1.494       .  S
C1017      C1018   1.406       .  A
C1017     Br1029   1.921       .  S
C1018      H1021   1.083       .  S
C1020      C1022   1.403       .  A
C1020      C1026   1.413       .  A
C1022      C1023   1.402       .  A
C1022      H1027   1.083       .  S
C1023      C1024   1.412       .  A
C1023     Br1031   1.916       .  S
C1024      C1025   1.404       .  A
C1025      C1026   1.407       .  A
C1025      H1028   1.083       .  S
C1026     Br1032   1.917       .  S
C1033      C1034   1.414       .  A
C1033      C1038   1.408       .  A
C1034      C1035   1.400       .  A
C1034     Br1050   1.920       .  S
C1035      C1036   1.403       .  A
C1035      H1039   1.084       .  S
C1036      C1037   1.410       .  A
C1036      C1040   1.489       .  S
C1037      C1038   1.405       .  A
C1037     Br1049   1.919       .  S
C1038      H1041   1.083       .  S
C1040      C1042   1.407       .  A
C1040      C1046   1.410       .  A
C1042      C1043   1.406       .  A
C1042      H1047   1.083       .  S
C1043      C1044   1.408       .  A
C1043     Br1051   1.914       .  S
C1044      C1045   1.404       .  A
C1045      C1046   1.399       .  A
C1045      H1048   1.083       .  S
C1046     Br1052   1.921       .  S
C1053      C1054   1.407       .  A
C1053      C1058   1.400   1_565  A
C1054      C1055   1.397       .  A
C1054     Br1070   1.920       .  S
C1055      C1056   1.404       .  A
C1055      H1059   1.083       .  S
C1056      C1057   1.411   1_565  A
C1056      C1060   1.482       .  S
C1057      C1058   1.400       .  A
C1057     Br1069   1.918       .  S
C1058      H1061   1.084       .  S
C1060      C1062   1.406   1_565  A
C1060      C1066   1.408       .  A
C1062      C1063   1.401       .  A
C1062      H1067   1.083       .  S
C1063      C1064   1.410   1_545  A
C1063     Br1071   1.920       .  S
C1064      C1065   1.405       .  A
C1065      C1066   1.397       .  A
C1065      H1068   1.084       .  S
C1066     Br1072   1.920       .  S
C1073      C1074   1.404       .  A
C1073      C1078   1.400   1_545  A
C1074      C1075   1.399       .  A
C1074     Br1090   1.918       .  S
C1075      C1076   1.406       .  A
C1075      H1079   1.083       .  S
C1076      C1077   1.409   1_545  A
C1076      C1080   1.478       .  S
C1077      C1078   1.395       .  A
C1077     Br1089   1.919       .  S
C1078      H1081   1.084       .  S
C1080      C1082   1.401   1_545  A
C1080      C1086   1.410       .  A
C1082      C1083   1.397       .  A
C1082      H1087   1.084       .  S
C1083      C1084   1.412       .  A
C1083     Br1091   1.921       .  S
C1084      C1085   1.403   1_565  A
C1085      C1086   1.399       .  A
C1085      H1088   1.084       .  S
C1086     Br1092   1.921       .  S
C1093      C1094   1.413   1_545  A
C1093      C1098   1.411       .  A
C1094      C1095   1.402       .  A
C1094     Br1110   1.920       .  S
C1095      C1096   1.404   1_565  A
C1095      H1099   1.084       .  S
C1096      C1097   1.402       .  A
C1096      C1100   1.475       .  S
C1097      C1098   1.396       .  A
C1097     Br1109   1.918       .  S
C1098      H1101   1.084       .  S
C1100      C1102   1.400       .  A
C1100      C1106   1.409   1_545  A
C1102      C1103   1.396       .  A
C1102      H1107   1.083       .  S
C1103      C1104   1.407   1_545  A
C1103     Br1111   1.920       .  S
C1104      C1105   1.401       .  A
C1105      C1106   1.400       .  A
C1105      H1108   1.084       .  S
C1106     Br1112   1.917       .  S
C1113      C1114   1.409       .  A
C1113      C1118   1.405       .  A
C1114      C1115   1.400       .  A
C1114     Br1130   1.921       .  S
C1115      C1116   1.407       .  A
C1115      H1119   1.083       .  S
C1116      C1117   1.409       .  A
C1116      C1120   1.485       .  S
C1117      C1118   1.397       .  A
C1117     Br1129   1.919       .  S
C1118      H1121   1.084       .  S
C1120      C1122   1.405       .  A
C1120      C1126   1.411       .  A
C1122      C1123   1.400       .  A
C1122      H1127   1.083       .  S
C1123      C1124   1.410       .  A
C1123     Br1131   1.919       .  S
C1124      C1125   1.402       .  A
C1125      C1126   1.399       .  A
C1125      H1128   1.083       .  S
C1126     Br1132   1.920       .  S
C1133      C1134   1.408       .  A
C1133      C1138   1.404       .  A
C1134      C1135   1.400       .  A
C1134     Br1150   1.914       .  S
C1135      C1136   1.403       .  A
C1135      H1139   1.084       .  S
C1136      C1137   1.405       .  A
C1136      C1140   1.473       .  S
C1137      C1138   1.394       .  A
C1137     Br1149   1.921       .  S
C1138      H1141   1.084       .  S
C1140      C1142   1.401       .  A
C1140      C1146   1.409       .  A
C1142      C1143   1.395       .  A
C1142      H1147   1.084       .  S
C1143      C1144   1.410       .  A
C1143     Br1151   1.921       .  S
C1144      C1145   1.401       .  A
C1145      C1146   1.397       .  A
C1145      H1148   1.084       .  S
C1146     Br1152   1.918       .  S
C1153      C1154   1.406       .  A
C1153      C1158   1.401       .  A
C1154      C1155   1.399       .  A
C1154     Br1170   1.918       .  S
C1155      C1156   1.405       .  A
C1155      H1159   1.083       .  S
C1156      C1157   1.412       .  A
C1156      C1160   1.483       .  S
C1157      C1158   1.399       .  A
C1157     Br1169   1.921       .  S
C1158      H1161   1.084       .  S
C1160      C1162   1.402       .  A
C1160      C1166   1.412       .  A
C1162      C1163   1.395       .  A
C1162      H1167   1.083       .  S
C1163      C1164   1.412       .  A
C1163     Br1171   1.922       .  S
C1164      C1165   1.403       .  A
C1165      C1166   1.399       .  A
C1165      H1168   1.084       .  S
C1166     Br1172   1.919       .  S
C1173      C1174   1.412       .  A
C1173      C1178   1.407       .  A
C1174      C1175   1.401       .  A
C1174     Br1190   1.921       .  S
C1175      C1176   1.404       .  A
C1175      H1179   1.084       .  S
C1176      C1177   1.403       .  A
C1176      C1180   1.473       .  S
C1177      C1178   1.394       .  A
C1177     Br1189   1.918       .  S
C1178      H1181   1.084       .  S
C1180      C1182   1.399       .  A
C1180      C1186   1.407       .  A
C1182      C1183   1.395       .  A
C1182      H1187   1.084       .  S
C1183      C1184   1.412       .  A
C1183     Br1191   1.922       .  S
C1184      C1185   1.403       .  A
C1185      C1186   1.400       .  A
C1185      H1188   1.083       .  S
C1186     Br1192   1.917       .  S
C1193      C1194   1.414       .  A
C1193      C1198   1.407   1_565  A
C1194      C1195   1.401       .  A
C1194     Br1210   1.920       .  S
C1195      C1196   1.403       .  A
C1195      H1199   1.084       .  S
C1196      C1197   1.411   1_565  A
C1196      C1200   1.490       .  S
C1197      C1198   1.406       .  A
C1197     Br1209   1.919       .  S
C1198      H1201   1.083       .  S
C1200      C1202   1.405   1_565  A
C1200      C1206   1.412       .  A
C1202      C1203   1.404       .  A
C1202      H1207   1.083       .  S
C1203      C1204   1.408   1_545  A
C1203     Br1211   1.914       .  S
C1204      C1205   1.402       .  A
C1205      C1206   1.402       .  A
C1205      H1208   1.083       .  S
C1206     Br1212   1.919       .  S
C1213      C1214   1.411       .  A
C1213      C1218   1.404   1_545  A
C1214      C1215   1.403       .  A
C1214     Br1230   1.915       .  S
C1215      C1216   1.403       .  A
C1215      H1219   1.083       .  S
C1216      C1217   1.408   1_545  A
C1216      C1220   1.486       .  S
C1217      C1218   1.402       .  A
C1217     Br1229   1.916       .  S
C1218      H1221   1.082       .  S
C1220      C1222   1.400   1_545  A
C1220      C1226   1.407       .  A
C1222      C1223   1.403       .  A
C1222      H1227   1.084       .  S
C1223      C1224   1.419       .  A
C1223     Br1231   1.921       .  S
C1224      C1225   1.412   1_565  A
C1225      C1226   1.406       .  A
C1225      H1228   1.083       .  S
C1226     Br1232   1.920       .  S
C1233      C1234   1.417       .  A
C1233      C1238   1.407   1_545  A
C1234      C1235   1.403       .  A
C1234     Br1250   1.922       .  S
C1235      C1236   1.403       .  A
C1235      H1239   1.083       .  S
C1236      C1237   1.407   1_545  A
C1236      C1240   1.483       .  S
C1237      C1238   1.398       .  A
C1237     Br1249   1.920       .  S
C1238      H1241   1.083       .  S
C1240      C1242   1.403   1_545  A
C1240      C1246   1.409       .  A
C1242      C1243   1.399       .  A
C1242      H1247   1.084       .  S
C1243      C1244   1.408       .  A
C1243     Br1251   1.915       .  S
C1244      C1245   1.403   1_565  A
C1245      C1246   1.402       .  A
C1245      H1248   1.083       .  S
C1246     Br1252   1.917       .  S
C1253      C1254   1.408       .  A
C1253      C1258   1.403   1_565  A
C1254      C1255   1.400       .  A
C1254     Br1270   1.915       .  S
C1255      C1256   1.403       .  A
C1255      H1259   1.084       .  S
C1256      C1257   1.405   1_565  A
C1256      C1260   1.476       .  S
C1257      C1258   1.397       .  A
C1257     Br1269   1.918       .  S
C1258      H1261   1.084       .  S
C1260      C1262   1.399   1_565  A
C1260      C1266   1.408       .  A
C1262      C1263   1.398       .  A
C1262      H1267   1.084       .  S
C1263      C1264   1.415       .  A
C1263     Br1271   1.919       .  S
C1264      C1265   1.404   1_545  A
C1265      C1266   1.400       .  A
C1265      H1268   1.083       .  S
C1266     Br1272   1.919       .  S
C1273      C1274   1.408       .  A
C1273      C1278   1.402   1_565  A
C1274      C1275   1.397       .  A
C1274     Br1290   1.916       .  S
C1275      C1276   1.402       .  A
C1275      H1279   1.084       .  S
C1276      C1277   1.411   1_565  A
C1276      C1280   1.482       .  S
C1277      C1278   1.402       .  A
C1277     Br1289   1.919       .  S
C1278      H1281   1.083       .  S
C1280      C1282   1.402   1_565  A
C1280      C1286   1.409       .  A
C1282      C1283   1.400       .  A
C1282      H1287   1.084       .  S
C1283      C1284   1.415   1_545  A
C1283     Br1291   1.921       .  S
C1284      C1285   1.406       .  A
C1285      C1286   1.400       .  A
C1285      H1288   1.084       .  S
C1286     Br1292   1.920       .  S
C1293      C1294   1.412       .  A
C1293      C1298   1.409       .  A
C1294      C1295   1.401       .  A
C1294     Br1310   1.921       .  S
C1295      C1296   1.403       .  A
C1295      H1299   1.084       .  S
C1296      C1297   1.402       .  A
C1296      C1300   1.475       .  S
C1297      C1298   1.397       .  A
C1297     Br1309   1.918       .  S
C1298      H1301   1.083       .  S
C1300      C1302   1.400       .  A
C1300      C1306   1.407       .  A
C1302      C1303   1.396       .  A
C1302      H1307   1.084       .  S
C1303      C1304   1.410       .  A
C1303     Br1311   1.921       .  S
C1304      C1305   1.403       .  A
C1305      C1306   1.401       .  A
C1305      H1308   1.083       .  S
C1306     Br1312   1.916       .  S
C1313      C1314   1.409       .  A
C1313      C1318   1.408       .  A
C1314      C1315   1.402       .  A
C1314     Br1330   1.920       .  S
C1315      C1316   1.405       .  A
C1315      H1319   1.084       .  S
C1316      C1317   1.402       .  A
C1316      C1320   1.473       .  S
C1317      C1318   1.395       .  A
C1317     Br1329   1.919       .  S
C1318      H1321   1.084       .  S
C1320      C1322   1.400       .  A
C1320      C1326   1.407       .  A
C1322      C1323   1.396       .  A
C1322      H1327   1.084       .  S
C1323      C1324   1.410       .  A
C1323     Br1331   1.920       .  S
C1324      C1325   1.402       .  A
C1325      C1326   1.400       .  A
C1325      H1328   1.082       .  S
C1326     Br1332   1.917       .  S
C1333      C1334   1.408       .  A
C1333      C1338   1.403       .  A
C1334      C1335   1.396       .  A
C1334     Br1350   1.919       .  S
C1335      C1336   1.401       .  A
C1335      H1339   1.084       .  S
C1336      C1337   1.409       .  A
C1336      C1340   1.478       .  S
C1337      C1338   1.402       .  A
C1337     Br1349   1.917       .  S
C1338      H1341   1.084       .  S
C1340      C1342   1.403       .  A
C1340      C1346   1.403       .  A
C1342      C1343   1.403       .  A
C1342      H1347   1.084       .  S
C1343      C1344   1.415       .  A
C1343     Br1351   1.920       .  S
C1344      C1345   1.412       .  A
C1345      C1346   1.396       .  A
C1345      H1348   1.083       .  S
C1346     Br1352   1.919       .  S
C1353      C1354   1.413       .  A
C1353      C1358   1.401       .  A
C1354      C1355   1.394       .  A
C1354     Br1370   1.922       .  S
C1355      C1356   1.400       .  A
C1355      H1359   1.084       .  S
C1356      C1357   1.411       .  A
C1356      C1360   1.477       .  S
C1357      C1358   1.397       .  A
C1357     Br1369   1.919       .  S
C1358      H1361   1.084       .  S
C1360      C1362   1.404       .  A
C1360      C1366   1.410       .  A
C1362      C1363   1.397       .  A
C1362      H1367   1.083       .  S
C1363      C1364   1.405       .  A
C1363     Br1371   1.917       .  S
C1364      C1365   1.400       .  A
C1365      C1366   1.396       .  A
C1365      H1368   1.084       .  S
C1366     Br1372   1.921       .  S
C1373      C1374   1.417       .  A
C1373      C1378   1.414       .  A
C1374      C1375   1.400       .  A
C1374     Br1390   1.922   1_545  S
C1375      C1376   1.402       .  A
C1375      H1379   1.084       .  S
C1376      C1377   1.398       .  A
C1376      C1380   1.468       .  S
C1377      C1378   1.391       .  A
C1377     Br1389   1.920       .  S
C1378      H1381   1.083       .  S
C1380      C1382   1.398       .  A
C1380      C1386   1.407   1_545  A
C1382      C1383   1.393       .  A
C1382      H1387   1.084       .  S
C1383      C1384   1.410       .  A
C1383     Br1391   1.920       .  S
C1384      C1385   1.403       .  A
C1385      C1386   1.399   1_545  A
C1385      H1388   1.083   1_545  S
C1386     Br1392   1.919       .  S
C1393      C1394   1.407   1_565  A
C1393      C1398   1.405       .  A
C1394      C1395   1.397       .  A
C1394     Br1410   1.920       .  S
C1395      C1396   1.402   1_545  A
C1395      H1399   1.084       .  S
C1396      C1397   1.404       .  A
C1396      C1400   1.467       .  S
C1397      C1398   1.394       .  A
C1397     Br1409   1.921       .  S
C1398      H1401   1.084       .  S
C1400      C1402   1.399       .  A
C1400      C1406   1.407   1_565  A
C1402      C1403   1.391       .  A
C1402      H1407   1.084       .  S
C1403      C1404   1.409       .  A
C1403     Br1411   1.920       .  S
C1404      C1405   1.403   1_565  A
C1405      C1406   1.398       .  A
C1405      H1408   1.083       .  S
C1406     Br1412   1.919       .  S
C1413      C1414   1.407       .  A
C1413      C1418   1.401   1_565  A
C1414      C1415   1.401       .  A
C1414     Br1430   1.918       .  S
C1415      C1416   1.404       .  A
C1415      H1419   1.083       .  S
C1416      C1417   1.407   1_565  A
C1416      C1420   1.475       .  S
C1417      C1418   1.394       .  A
C1417     Br1429   1.920       .  S
C1418      H1421   1.083       .  S
C1420      C1422   1.399   1_565  A
C1420      C1426   1.409       .  A
C1422      C1423   1.395       .  A
C1422      H1427   1.084       .  S
C1423      C1424   1.414   1_545  A
C1423     Br1431   1.922       .  S
C1424      C1425   1.403       .  A
C1425      C1426   1.398       .  A
C1425      H1428   1.084       .  S
C1426     Br1432   1.918       .  S
C1433      C1434   1.414   1_565  A
C1433      C1438   1.412       .  A
C1434      C1435   1.405       .  A
C1434     Br1450   1.920       .  S
C1435      C1436   1.405   1_545  A
C1435      H1439   1.084       .  S
C1436      C1437   1.401       .  A
C1436      C1440   1.478       .  S
C1437      C1438   1.396       .  A
C1437     Br1449   1.919       .  S
C1438      H1441   1.083       .  S
C1440      C1442   1.399       .  A
C1440      C1446   1.408   1_565  A
C1442      C1443   1.395       .  A
C1442      H1447   1.084       .  S
C1443      C1444   1.411       .  A
C1443     Br1451   1.920       .  S
C1444      C1445   1.406       .  A
C1445      C1446   1.403   1_565  A
C1445      H1448   1.082   1_565  S
C1446     Br1452   1.917       .  S
C1453      C1454   1.417       .  A
C1453      C1458   1.410       .  A
C1454      C1455   1.402       .  A
C1454     Br1470   1.921       .  S
C1455      C1456   1.401       .  A
C1455      H1459   1.084       .  S
C1456      C1457   1.407       .  A
C1456      C1460   1.484       .  S
C1457      C1458   1.401       .  A
C1457     Br1469   1.918       .  S
C1458      H1461   1.083       .  S
C1460      C1462   1.403       .  A
C1460      C1466   1.409       .  A
C1462      C1463   1.402       .  A
C1462      H1467   1.083       .  S
C1463      C1464   1.410       .  A
C1463     Br1471   1.915       .  S
C1464      C1465   1.404       .  A
C1465      C1466   1.402       .  A
C1465      H1468   1.083       .  S
C1466     Br1472   1.917       .  S
C1473      C1474   1.407       .  A
C1473      C1478   1.402       .  A
C1474      C1475   1.403       .  A
C1474     Br1490   1.915       .  S
C1475      C1476   1.405       .  A
C1475      H1479   1.083       .  S
C1476      C1477   1.413       .  A
C1476      C1480   1.493       .  S
C1477      C1478   1.405       .  A
C1477     Br1489   1.917       .  S
C1478      H1481   1.083       .  S
C1480      C1482   1.401       .  A
C1480      C1486   1.409       .  A
C1482      C1483   1.404       .  A
C1482      H1487   1.084       .  S
C1483      C1484   1.424       .  A
C1483     Br1491   1.923       .  S
C1484      C1485   1.411       .  A
C1485      C1486   1.406       .  A
C1485      H1488   1.083       .  S
C1486     Br1492   1.918       .  S
C1493      C1494   1.408       .  A
C1493      C1498   1.403       .  A
C1494      C1495   1.406       .  A
C1494     Br1510   1.915       .  S
C1495      C1496   1.407       .  A
C1495      H1499   1.083       .  S
C1496      C1497   1.409       .  A
C1496      C1500   1.487       .  S
C1497      C1498   1.399       .  A
C1497     Br1509   1.919       .  S
C1498      H1501   1.083       .  S
C1500      C1502   1.404       .  A
C1500      C1506   1.409       .  A
C1502      C1503   1.402       .  A
C1502      H1507   1.084       .  S
C1503      C1504   1.416       .  A
C1503     Br1511   1.923       .  S
C1504      C1505   1.404       .  A
C1505      C1506   1.400       .  A
C1505      H1508   1.084       .  S
C1506     Br1512   1.916       .  S
C1513      C1514   1.411       .  A
C1513      C1518   1.405       .  A
C1514      C1515   1.403       .  A
C1514     Br1530   1.915       .  S
C1515      C1516   1.404       .  A
C1515      H1519   1.083       .  S
C1516      C1517   1.411       .  A
C1516      C1520   1.491       .  S
C1517      C1518   1.404       .  A
C1517     Br1529   1.920       .  S
C1518      H1521   1.083       .  S
C1520      C1522   1.405       .  A
C1520      C1526   1.412       .  A
C1522      C1523   1.401       .  A
C1522      H1527   1.083       .  S
C1523      C1524   1.410       .  A
C1523     Br1531   1.920       .  S
C1524      C1525   1.405       .  A
C1525      C1526   1.404       .  A
C1525      H1528   1.084       .  S
C1526     Br1532   1.919       .  S
C1533      C1534   1.410   1_655  A
C1533      C1538   1.403       .  A
C1534      C1535   1.402       .  A
C1534     Br1550   1.921       .  S
C1535      C1536   1.407   1_455  A
C1535      H1539   1.083       .  S
C1536      C1537   1.408       .  A
C1536      C1540   1.480       .  S
C1537      C1538   1.394       .  A
C1537     Br1549   1.920       .  S
C1538      H1541   1.084       .  S
C1540      C1542   1.403       .  A
C1540      C1546   1.412   1_655  A
C1542      C1543   1.395       .  A
C1542      H1547   1.083       .  S
C1543      C1544   1.407       .  A
C1543     Br1551   1.920       .  S
C1544      C1545   1.401   1_655  A
C1545      C1546   1.399       .  A
C1545      H1548   1.084       .  S
C1546     Br1552   1.919       .  S
C1553      C1554   1.407       .  A
C1553      C1558   1.403   1_655  A
C1554      C1555   1.397       .  A
C1554     Br1570   1.916       .  S
C1555      C1556   1.401       .  A
C1555      H1559   1.084       .  S
C1556      C1557   1.402   1_655  A
C1556      C1560   1.463   1_655  S
C1557      C1558   1.391       .  A
C1557     Br1569   1.919       .  S
C1558      H1561   1.084       .  S
C1560      C1562   1.392       .  A
C1560      C1566   1.406   1_455  A
C1562      C1563   1.391       .  A
C1562      H1567   1.084       .  S
C1563      C1564   1.421       .  A
C1563     Br1571   1.922       .  S
C1564      C1565   1.404   1_455  A
C1565      C1566   1.397       .  A
C1565      H1568   1.083       .  S
C1566     Br1572   1.918       .  S
C1573      C1574   1.410       .  A
C1573      C1578   1.405   1_655  A
C1574      C1575   1.395       .  A
C1574     Br1590   1.919       .  S
C1575      C1576   1.399       .  A
C1575      H1579   1.084       .  S
C1576      C1577   1.408   1_655  A
C1576      C1580   1.477       .  S
C1577      C1578   1.404       .  A
C1577     Br1589   1.918       .  S
C1578      H1581   1.083       .  S
C1580      C1582   1.405   1_655  A
C1580      C1586   1.404       .  A
C1582      C1583   1.402       .  A
C1582      H1587   1.083       .  S
C1583      C1584   1.410   1_455  A
C1583     Br1591   1.921       .  S
C1584      C1585   1.406       .  A
C1585      C1586   1.396       .  A
C1585      H1588   1.084       .  S
C1586     Br1592   1.919       .  S
C1593      C1594   1.409   1_455  A
C1593      C1598   1.405       .  A
C1594      C1595   1.400       .  A
C1594     Br1610   1.912       .  S
C1595      C1596   1.402   1_655  A
C1595      H1599   1.084       .  S
C1596      C1597   1.407       .  A
C1596      C1600   1.479       .  S
C1597      C1598   1.400       .  A
C1597     Br1609   1.920       .  S
C1598      H1601   1.084       .  S
C1600      C1602   1.398       .  A
C1600      C1606   1.409   1_455  A
C1602      C1603   1.397       .  A
C1602      H1607   1.084       .  S
C1603      C1604   1.420       .  A
C1603     Br1611   1.924       .  S
C1604      C1605   1.404   1_455  A
C1605      C1606   1.400       .  A
C1605      H1608   1.083       .  S
C1606     Br1612   1.918       .  S
C1613      C1614   1.415       .  A
C1613      C1618   1.401   1_655  A
C1614      C1615   1.398       .  A
C1614     Br1630   1.920       .  S
C1615      C1616   1.398   1_655  A
C1615      H1619   1.084       .  S
C1616      C1617   1.408       .  A
C1616      C1620   1.474       .  S
C1617      C1618   1.397       .  A
C1617     Br1629   1.917       .  S
C1618      H1621   1.083       .  S
C1620      C1622   1.398   1_455  A
C1620      C1626   1.408       .  A
C1622      C1623   1.395       .  A
C1622      H1627   1.084       .  S
C1623      C1624   1.411   1_655  A
C1623     Br1631   1.919       .  S
C1624      C1625   1.403       .  A
C1625      C1626   1.403       .  A
C1625      H1628   1.083       .  S
C1626     Br1632   1.918       .  S
C1633      C1634   1.410       .  A
C1633      C1638   1.403   1_455  A
C1634      C1635   1.399       .  A
C1634     Br1650   1.919       .  S
C1635      C1636   1.403       .  A
C1635      H1639   1.084       .  S
C1636      C1637   1.410   1_455  A
C1636      C1640   1.484       .  S
C1637      C1638   1.401       .  A
C1637     Br1649   1.917       .  S
C1638      H1641   1.084       .  S
C1640      C1642   1.398   1_455  A
C1640      C1646   1.408       .  A
C1642      C1643   1.400       .  A
C1642      H1647   1.084       .  S
C1643      C1644   1.424       .  A
C1643     Br1651   1.924       .  S
C1644      C1645   1.408   1_655  A
C1645      C1646   1.401       .  A
C1645      H1648   1.083       .  S
C1646     Br1652   1.919       .  S
C1653      C1654   1.407       .  A
C1653      C1658   1.399       .  A
C1654      C1655   1.397       .  A
C1654     Br1670   1.919       .  S
C1655      C1656   1.402       .  A
C1655      H1659   1.083       .  S
C1656      C1657   1.410       .  A
C1656      C1660   1.476       .  S
C1657      C1658   1.398       .  A
C1657     Br1669   1.919       .  S
C1658      H1661   1.084       .  S
C1660      C1662   1.405       .  A
C1660      C1666   1.406       .  A
C1662      C1663   1.398       .  A
C1662      H1667   1.084       .  S
C1663      C1664   1.407       .  A
C1663     Br1671   1.921       .  S
C1664      C1665   1.405       .  A
C1665      C1666   1.396       .  A
C1665      H1668   1.084       .  S
C1666     Br1672   1.919       .  S
C1673      C1674   1.407       .  A
C1673      C1678   1.401       .  A
C1674      C1675   1.394       .  A
C1674     Br1690   1.920       .  S
C1675      C1676   1.401       .  A
C1675      H1679   1.084       .  S
C1676      C1677   1.410       .  A
C1676      C1680   1.474       .  S
C1677      C1678   1.399       .  A
C1677     Br1689   1.918       .  S
C1678      H1681   1.084       .  S
C1680      C1682   1.404       .  A
C1680      C1686   1.404       .  A
C1682      C1683   1.402       .  A
C1682      H1687   1.084       .  S
C1683      C1684   1.410       .  A
C1683     Br1691   1.916       .  S
C1684      C1685   1.405       .  A
C1685      C1686   1.394       .  A
C1685      H1688   1.084       .  S
C1686     Br1692   1.921       .  S
C1693      C1694   1.407       .  A
C1693      C1698   1.404       .  A
C1694      C1695   1.398       .  A
C1694     Br1710   1.916       .  S
C1695      C1696   1.403       .  A
C1695      H1699   1.084       .  S
C1696      C1697   1.406       .  A
C1696      C1700   1.472       .  S
C1697      C1698   1.394       .  A
C1697     Br1709   1.920       .  S
C1698      H1701   1.084       .  S
C1700      C1702   1.398       .  A
C1700      C1706   1.408       .  A
C1702      C1703   1.396       .  A
C1702      H1707   1.084       .  S
C1703      C1704   1.416       .  A
C1703     Br1711   1.920       .  S
C1704      C1705   1.403       .  A
C1705      C1706   1.397       .  A
C1705      H1708   1.084       .  S
C1706     Br1712   1.919       .  S
C1713      C1714   1.413       .  A
C1713      C1718   1.410       .  A
C1714      C1715   1.397       .  A
C1714     Br1730   1.921       .  S
C1715      C1716   1.400       .  A
C1715      H1719   1.084       .  S
C1716      C1717   1.404       .  A
C1716      C1720   1.473       .  S
C1717      C1718   1.399       .  A
C1717     Br1729   1.919       .  S
C1718      H1721   1.084       .  S
C1720      C1722   1.400       .  A
C1720      C1726   1.407       .  A
C1722      C1723   1.397       .  A
C1722      H1727   1.084       .  S
C1723      C1724   1.411       .  A
C1723     Br1731   1.920       .  S
C1724      C1725   1.402       .  A
C1725      C1726   1.399       .  A
C1725      H1728   1.083       .  S
C1726     Br1732   1.918       .  S
C1733      C1734   1.417       .  A
C1733      C1738   1.411       .  A
C1734      C1735   1.404       .  A
C1734     Br1750   1.920       .  S
C1735      C1736   1.403       .  A
C1735      H1739   1.084       .  S
C1736      C1737   1.405       .  A
C1736      C1740   1.485       .  S
C1737      C1738   1.402       .  A
C1737     Br1749   1.918       .  S
C1738      H1741   1.083       .  S
C1740      C1742   1.402       .  A
C1740      C1746   1.410       .  A
C1742      C1743   1.401       .  A
C1742      H1747   1.083       .  S
C1743      C1744   1.410       .  A
C1743     Br1751   1.919       .  S
C1744      C1745   1.403       .  A
C1745      C1746   1.403       .  A
C1745      H1748   1.083       .  S
C1746     Br1752   1.916       .  S
C1753      C1754   1.411       .  A
C1753      C1758   1.408       .  A
C1754      C1755   1.401       .  A
C1754     Br1770   1.920       .  S
C1755      C1756   1.403       .  A
C1755      H1759   1.084       .  S
C1756      C1757   1.402       .  A
C1756      C1760   1.471       .  S
C1757      C1758   1.394       .  A
C1757     Br1769   1.919       .  S
C1758      H1761   1.084       .  S
C1760      C1762   1.398       .  A
C1760      C1766   1.407       .  A
C1762      C1763   1.394       .  A
C1762      H1767   1.084       .  S
C1763      C1764   1.411       .  A
C1763     Br1771   1.920       .  S
C1764      C1765   1.403       .  A
C1765      C1766   1.400       .  A
C1765      H1768   1.083       .  S
C1766     Br1772   1.918       .  S
C1773      C1774   1.406       .  A
C1773      C1778   1.404       .  A
C1774      C1775   1.398       .  A
C1774     Br1790   1.918       .  S
C1775      C1776   1.404       .  A
C1775      H1779   1.084       .  S
C1776      C1777   1.408       .  A
C1776      C1780   1.477       .  S
C1777      C1778   1.398       .  A
C1777     Br1789   1.919       .  S
C1778      H1781   1.083       .  S
C1780      C1782   1.399       .  A
C1780      C1786   1.410       .  A
C1782      C1783   1.395       .  A
C1782      H1787   1.084       .  S
C1783      C1784   1.411       .  A
C1783     Br1791   1.921       .  S
C1784      C1785   1.403       .  A
C1785      C1786   1.402       .  A
C1785      H1788   1.083       .  S
C1786     Br1792   1.919       .  S
C1793      C1794   1.414       .  A
C1793      C1798   1.402       .  A
C1794      C1795   1.397       .  A
C1794     Br1810   1.921       .  S
C1795      C1796   1.398       .  A
C1795      H1799   1.084       .  S
C1796      C1797   1.407       .  A
C1796      C1800   1.468       .  S
C1797      C1798   1.395       .  A
C1797     Br1809   1.920       .  S
C1798      H1801   1.084       .  S
C1800      C1802   1.397       .  A
C1800      C1806   1.407       .  A
C1802      C1803   1.391       .  A
C1802      H1807   1.084       .  S
C1803      C1804   1.411       .  A
C1803     Br1811   1.921       .  S
C1804      C1805   1.402       .  A
C1805      C1806   1.400       .  A
C1805      H1808   1.083       .  S
C1806     Br1812   1.918       .  S
C1813      C1814   1.409   1_655  A
C1813      C1818   1.404       .  A
C1814      C1815   1.402       .  A
C1814     Br1830   1.914       .  S
C1815      C1816   1.404   1_455  A
C1815      H1819   1.084       .  S
C1816      C1817   1.408       .  A
C1816      C1820   1.484       .  S
C1817      C1818   1.401       .  A
C1817     Br1829   1.918       .  S
C1818      H1821   1.083       .  S
C1820      C1822   1.402       .  A
C1820      C1826   1.407   1_655  A
C1822      C1823   1.403       .  A
C1822      H1827   1.084       .  S
C1823      C1824   1.418       .  A
C1823     Br1831   1.922       .  S
C1824      C1825   1.407   1_655  A
C1825      C1826   1.400       .  A
C1825      H1828   1.083       .  S
C1826     Br1832   1.917       .  S
C1833      C1834   1.420   1_655  A
C1833      C1838   1.409       .  A
C1834      C1835   1.403       .  A
C1834     Br1850   1.922       .  S
C1835      C1836   1.401   1_455  A
C1835      H1839   1.084       .  S
C1836      C1837   1.409       .  A
C1836      C1840   1.488       .  S
C1837      C1838   1.404       .  A
C1837     Br1849   1.920       .  S
C1838      H1841   1.083       .  S
C1840      C1842   1.403       .  A
C1840      C1846   1.411   1_655  A
C1842      C1843   1.402       .  A
C1842      H1847   1.083       .  S
C1843      C1844   1.411       .  A
C1843     Br1851   1.914       .  S
C1844      C1845   1.402   1_655  A
C1845      C1846   1.402       .  A
C1845      H1848   1.083       .  S
C1846     Br1852   1.917       .  S
C1853      C1854   1.423       .  A
C1853      C1858   1.411   1_455  A
C1854      C1855   1.401       .  A
C1854     Br1870   1.923       .  S
C1855      C1856   1.399       .  A
C1855      H1859   1.084       .  S
C1856      C1857   1.406   1_455  A
C1856      C1860   1.483       .  S
C1857      C1858   1.404       .  A
C1857     Br1869   1.918       .  S
C1858      H1861   1.083       .  S
C1860      C1862   1.401       .  A
C1860      C1866   1.410   1_455  A
C1862      C1863   1.398       .  A
C1862      H1867   1.084       .  S
C1863      C1864   1.408       .  A
C1863     Br1871   1.914       .  S
C1864      C1865   1.404   1_455  A
C1865      C1866   1.406       .  A
C1865      H1868   1.083       .  S
C1866     Br1872   1.917       .  S
C1873      C1874   1.414       .  A
C1873      C1878   1.404   1_455  A
C1874      C1875   1.394       .  A
C1874     Br1890   1.922       .  S
C1875      C1876   1.397   1_455  A
C1875      H1879   1.084       .  S
C1876      C1877   1.405       .  A
C1876      C1880   1.465       .  S
C1877      C1878   1.395       .  A
C1877     Br1889   1.919       .  S
C1878      H1881   1.084       .  S
C1880      C1882   1.401       .  A
C1880      C1886   1.404   1_655  A
C1882      C1883   1.398       .  A
C1882      H1887   1.084       .  S
C1883      C1884   1.407       .  A
C1883     Br1891   1.916       .  S
C1884      C1885   1.402   1_655  A
C1885      C1886   1.393       .  A
C1885      H1888   1.084       .  S
C1886     Br1892   1.919       .  S
C1893      C1894   1.408       .  A
C1893      C1898   1.404   1_655  A
C1894      C1895   1.393       .  A
C1894     Br1910   1.919       .  S
C1895      C1896   1.400       .  A
C1895      H1899   1.084       .  S
C1896      C1897   1.409   1_655  A
C1896      C1900   1.476       .  S
C1897      C1898   1.402       .  A
C1897     Br1909   1.918       .  S
C1898      H1901   1.083       .  S
C1900      C1902   1.404   1_655  A
C1900      C1906   1.404       .  A
C1902      C1903   1.402       .  A
C1902      H1907   1.083       .  S
C1903      C1904   1.411   1_455  A
C1903     Br1911   1.919       .  S
C1904      C1905   1.409       .  A
C1905      C1906   1.397       .  A
C1905      H1908   1.084       .  S
C1906     Br1912   1.921       .  S
C1913      C1914   1.407   1_655  A
C1913      C1918   1.401       .  A
C1914      C1915   1.405       .  A
C1914     Br1930   1.915       .  S
C1915      C1916   1.407   1_455  A
C1915      H1919   1.083       .  S
C1916      C1917   1.411       .  A
C1916      C1920   1.492       .  S
C1917      C1918   1.401       .  A
C1917     Br1929   1.917       .  S
C1918      H1921   1.083       .  S
C1920      C1922   1.403       .  A
C1920      C1926   1.410   1_655  A
C1922      C1923   1.404       .  A
C1922      H1927   1.083       .  S
C1923      C1924   1.417       .  A
C1923     Br1931   1.922       .  S
C1924      C1925   1.408   1_655  A
C1925      C1926   1.405       .  A
C1925      H1928   1.083       .  S
C1926     Br1932   1.919       .  S
