geometry optimzed in LAMMPS
_audit_creation_date              2020-11-30 
_audit_creation_method            'lammps2cif' 
_symmetry_space_group_name_H-M    'P1' 
_symmetry_Int_Tables_number       1 
_symmetry_cell_setting            triclinic 
loop_ 
_symmetry_equiv_pos_as_xyz 
  x,y,z 
_cell_length_a                    51.07942615 
_cell_length_b                    49.320977024287465 
_cell_length_c                    27.044744728680033 
_cell_angle_alpha                 90.27964261146208 
_cell_angle_beta                  89.81371993867745 
_cell_angle_gamma                 89.92205873232956 
loop_ 
_atom_site_label 
_atom_site_type_symbol 
_atom_site_fract_x 
_atom_site_fract_y 
_atom_site_fract_z 
_atom_site_charge 
C1          C  0.24704400  0.58534314  0.75007025    -0.02400
N2          N  0.20123741  0.63001649  0.81966942    -0.27200
N3          N  0.22339788  0.64339027  0.82520743    -0.35100
C4          C  0.24297131  0.62808158  0.80701762     0.01100
C5          C  0.23259024  0.60436004  0.78650512     0.07100
C6          C  0.20591620  0.60637339  0.79619376    -0.06000
H7          H  0.26288077  0.63520479  0.80281894     0.07800
H8          H  0.19065391  0.59283273  0.78376482     0.09000
Cu9        Cu  0.22463452  0.68518900  0.83908141     0.44200
Cu10       Cu  0.16568171  0.64650284  0.83954102     0.42000
Cu11       Cu  0.16288610  0.71996702  0.83160260     0.43900
N12         N  0.22056284  0.72632528  0.82166552    -0.34600
N13         N  0.19786513  0.73805063  0.81234866    -0.28900
C14         C  0.20201425  0.76184648  0.78920153    -0.05000
C15         C  0.22884942  0.76566622  0.78414901     0.07300
C16         C  0.23977151  0.74282592  0.80649943     0.01100
H17         H  0.18655430  0.77460255  0.77509014     0.08700
H18         H  0.26029114  0.73733050  0.80662569     0.07800
N19         N  0.13601582  0.69663602  0.86962797    -0.36100
N20         N  0.13709852  0.66994393  0.87251386    -0.28200
C21         C  0.11869232  0.66132686  0.90424829    -0.03500
C22         C  0.10535027  0.68370993  0.92266910     0.05100
C23         C  0.11687565  0.70575046  0.89953707     0.03200
H24         H  0.11589220  0.64030219  0.91393799     0.08300
H25         H  0.11233217  0.72697083  0.90479283     0.07200
N26         N  0.29284759  0.63155161  0.68521535    -0.27200
N27         N  0.27052863  0.64459109  0.67895828    -0.35100
C28         C  0.25095672  0.62857005  0.69475128     0.01100
C29         C  0.26144600  0.60470256  0.71439823     0.07100
C30         C  0.28822472  0.60743683  0.70664356    -0.06000
H31         H  0.23085730  0.63527651  0.69832721     0.07800
H32         H  0.30353669  0.59417668  0.71974959     0.09000
Cu33       Cu  0.26872229  0.68667400  0.66661683     0.44200
Cu34       Cu  0.32863005  0.64921916  0.67133021     0.42000
Cu35       Cu  0.32956720  0.72233009  0.68580906     0.43900
N36         N  0.27143905  0.72844787  0.68209646    -0.34600
N37         N  0.29346773  0.74040167  0.69531120    -0.28900
C38         C  0.28803177  0.76419444  0.71780308    -0.05000
C39         C  0.26103379  0.76784056  0.71874555     0.07300
C40         C  0.25142913  0.74495846  0.69398176     0.01100
H41         H  0.30262077  0.77648335  0.73604582     0.08700
H42         H  0.23109534  0.73897073  0.69181923     0.07800
N43         N  0.36004520  0.70000762  0.65627268    -0.36100
N44         N  0.35952330  0.67343752  0.65026962    -0.28200
C45         C  0.38083520  0.66564200  0.62476538    -0.03500
C46         C  0.39555278  0.68846513  0.61387663     0.05100
C47         C  0.38172042  0.70987481  0.63477536     0.03200
H48         H  0.38471096  0.64491064  0.61387855     0.08300
H49         H  0.38640370  0.73121162  0.63325868     0.07200
C50         C  0.24442487  0.78627779  0.75296203    -0.02400
N51         N  0.79807696  0.73490979  0.81629270    -0.27200
N52         N  0.77564953  0.72231409  0.82396231    -0.35100
C53         C  0.75629384  0.73759344  0.80551382     0.01100
C54         C  0.76694822  0.76056098  0.78304252     0.07100
C55         C  0.79368573  0.75812572  0.79140536    -0.06000
H56         H  0.73613918  0.73100462  0.80314325     0.07800
H57         H  0.80902387  0.77113988  0.77754019     0.09000
Cu58       Cu  0.77298503  0.68132930  0.84405325     0.44200
Cu59       Cu  0.83315866  0.71803916  0.83801600     0.42000
Cu60       Cu  0.83284384  0.64435139  0.85529635     0.43900
N61         N  0.77574210  0.63910932  0.83508232    -0.34600
N62         N  0.79832076  0.62609523  0.83295580    -0.28900
C63         C  0.79481210  0.60182216  0.81069715    -0.05000
C64         C  0.76849523  0.59903121  0.79843284     0.07300
C65         C  0.75708040  0.62296097  0.81628820     0.01100
H66         H  0.81066638  0.58834002  0.80057165     0.08700
H67         H  0.73724584  0.62965466  0.80936772     0.07800
N68         N  0.86063770  0.67033278  0.88483378    -0.36100
N69         N  0.86078230  0.69684216  0.87789845    -0.28200
C70         C  0.88007922  0.70790479  0.90475815    -0.03500
C71         C  0.89276069  0.68745777  0.93021280     0.05100
C72         C  0.87992675  0.66385108  0.91636699     0.03200
H73         H  0.88425190  0.72938414  0.90579739     0.08300
H74         H  0.88382338  0.64347337  0.92896847     0.07200
C75         C  0.75548041  0.57946291  0.76101470    -0.02400
N76         N  0.70984089  0.73125866  0.67619510    -0.27200
N77         N  0.73283114  0.71913303  0.67283131    -0.35100
C78         C  0.75103171  0.73567633  0.69184834     0.01100
C79         C  0.73887801  0.75884447  0.71110754     0.07100
C80         C  0.71260135  0.75528262  0.69961796    -0.06000
H81         H  0.77122503  0.72978392  0.69736745     0.07800
H82         H  0.69639434  0.76821041  0.71013175     0.09000
Cu83       Cu  0.73717858  0.67735091  0.66143805     0.44200
Cu84       Cu  0.67617263  0.71274177  0.65140631     0.42000
Cu85       Cu  0.67828883  0.63880014  0.65488198     0.43900
N86         N  0.73476678  0.63635824  0.68078514    -0.34600
N87         N  0.71240855  0.62307279  0.68366919    -0.28900
C88         C  0.71593584  0.60007398  0.70958803    -0.05000
C89         C  0.74206917  0.59841738  0.72349508     0.07300
C90         C  0.75334227  0.62169788  0.70330693     0.01100
H91         H  0.70025871  0.58649182  0.71980602     0.08700
H92         H  0.77310550  0.62880488  0.70946727     0.07800
N93         N  0.65057881  0.66098812  0.61702964    -0.36100
N94         N  0.64982714  0.68774858  0.61580593    -0.28200
C95         C  0.62970512  0.69559560  0.58747810    -0.03500
C96         C  0.61704204  0.67265683  0.56995566     0.05100
C97         C  0.63092317  0.65108074  0.58955470     0.03200
H98         H  0.62437011  0.71654363  0.58149011     0.08300
H99         H  0.62696543  0.62969047  0.58499924     0.07200
C100        C  0.75200175  0.77907216  0.74688382    -0.02400
N101        N  0.94534744  0.38878900  0.57261544    -0.27200
N102        N  0.95792177  0.41214532  0.57429572    -0.35100
C103        C  0.94325670  0.43090701  0.55177208     0.01100
C104        C  0.92102650  0.41860044  0.53190151     0.07100
C105        C  0.92273839  0.39185150  0.54740446    -0.06000
H106        H  0.94984661  0.45134720  0.54445768     0.07800
H107        H  0.90942897  0.37548548  0.53882854     0.09000
Cu108      Cu  0.99787243  0.41576910  0.59118378     0.44200
Cu109      Cu  0.96168464  0.35435408  0.60256420     0.42000
Cu110      Cu  0.03380234  0.35506980  0.61054269     0.43900
N111        N  0.03839246  0.41245583  0.57935728    -0.34600
N112        N  0.05101674  0.38909798  0.57995060    -0.28900
C113        C  0.07419125  0.39181283  0.55622887    -0.05000
C114        C  0.07662304  0.41850504  0.54036803     0.07300
C115        C  0.05365817  0.43095180  0.55735354     0.01100
H116        H  0.08741036  0.37517987  0.54854342     0.08700
H117        H  0.04718884  0.45125866  0.54855875     0.07800
N118        N  0.00950251  0.32887515  0.64901139    -0.36100
N119        N  0.98369310  0.32850314  0.64562631    -0.28200
C120        C  0.97418709  0.30925534  0.67560853    -0.03500
C121        C  0.99496489  0.29676298  0.69925143     0.05100
C122        C  0.01705688  0.30985833  0.68136550     0.03200
H123        H  0.95359357  0.30456811  0.67901363     0.08300
H124        H  0.03728949  0.30547741  0.68986856     0.07200
C125        C  0.90312262  0.43242611  0.49391825    -0.02400
N126        N  0.05243319  0.47314104  0.42229386    -0.27200
N127        N  0.04049143  0.44945287  0.42083559    -0.35100
C128        C  0.05543808  0.43113872  0.44399152     0.01100
C129        C  0.07748074  0.44397566  0.46361528     0.07100
C130        C  0.07486547  0.47077290  0.44830479    -0.06000
H131        H  0.04925739  0.41057918  0.45143028     0.07800
H132        H  0.08741117  0.48764384  0.45770841     0.09000
Cu133      Cu  0.00081056  0.44521715  0.40330081     0.44200
Cu134      Cu  0.03538214  0.50676907  0.38979888     0.42000
Cu135      Cu  0.96300475  0.50315377  0.37132025     0.43900
N136        N  0.96018742  0.44778572  0.41323018    -0.34600
N137        N  0.94611648  0.46968679  0.40463478    -0.28900
C138        C  0.92243888  0.46709737  0.42664210    -0.05000
C139        C  0.92187455  0.44279457  0.45278490     0.07300
C140        C  0.94585090  0.43070977  0.44044413     0.01100
H141        H  0.90744952  0.48258106  0.42595514     0.08700
H142        H  0.95357586  0.41197745  0.45512655     0.07800
N143        N  0.98803944  0.53039769  0.33711806    -0.36100
N144        N  0.01366276  0.53170878  0.34376316    -0.28200
C145        C  0.02350925  0.55113742  0.31448694    -0.03500
C146        C  0.00318833  0.56276290  0.28803794     0.05100
C147        C  0.98099093  0.54903092  0.30361723     0.03200
H148        H  0.04402463  0.55642147  0.31319841     0.08300
H149        H  0.96100379  0.55241134  0.29216060     0.07200
C150        C  0.09576597  0.43127687  0.50268910    -0.02400
N151        N  0.04721429  0.87988627  0.41517920    -0.27200
N152        N  0.03528642  0.90339019  0.40887989    -0.35100
C153        C  0.05106424  0.92318991  0.42540071     0.01100
C154        C  0.07354214  0.91181718  0.44631740     0.07100
C155        C  0.07029563  0.88407037  0.43836302    -0.06000
H156        H  0.04519457  0.94423492  0.42804531     0.07800
H157        H  0.08287758  0.86791763  0.45098324     0.09000
Cu158      Cu  0.99482302  0.90711622  0.39550487     0.44200
Cu159      Cu  0.02984420  0.84372773  0.39279953     0.42000
Cu160      Cu  0.95840239  0.84574565  0.39861228     0.43900
N161        N  0.95433010  0.90544504  0.41031720    -0.34600
N162        N  0.94178773  0.88240421  0.41732836    -0.28900
C163        C  0.91870965  0.88729480  0.43999594    -0.05000
C164        C  0.91617729  0.91506340  0.44756521     0.07300
C165        C  0.93902022  0.92578788  0.42663692     0.01100
H166        H  0.90586450  0.87154680  0.45340207     0.08700
H167        H  0.94549124  0.94661519  0.42948069     0.07800
N168        N  0.97959190  0.81650219  0.36141970    -0.36100
N169        N  0.00541064  0.81569687  0.35830816    -0.28200
C170        C  0.01230768  0.79561410  0.32696092    -0.03500
C171        C  0.98970210  0.78325335  0.30955882     0.05100
C172        C  0.96940603  0.79709268  0.33244408     0.03200
H173        H  0.03231033  0.79058097  0.31740658     0.08300
H174        H  0.94863181  0.79397789  0.32744657     0.07200
N175        N  0.94436468  0.97670256  0.54584917    -0.27200
N176        N  0.95569221  0.95313710  0.55438901    -0.35100
C177        C  0.93926233  0.93340685  0.53981351     0.01100
C178        C  0.91698831  0.94513117  0.51866953     0.07100
C179        C  0.92096639  0.97278497  0.52433247    -0.06000
H180        H  0.94460669  0.91218740  0.53802382     0.07800
H181        H  0.90900370  0.98899962  0.50990804     0.09000
Cu182      Cu  0.99607562  0.94982120  0.56879509     0.44200
Cu183      Cu  0.96280171  0.01277166  0.55957057     0.42000
Cu184      Cu  0.03325711  0.01262671  0.57111839     0.43900
N185        N  0.03659687  0.95259212  0.55487222    -0.34600
N186        N  0.04911264  0.97576072  0.54853725    -0.28900
C187        C  0.07185861  0.97101663  0.52434768    -0.05000
C188        C  0.07428021  0.94327607  0.51572294     0.07300
C189        C  0.05175484  0.93241451  0.53744490     0.01100
H190        H  0.08476257  0.98684194  0.51146991     0.08700
H191        H  0.04530688  0.91157546  0.53454661     0.07800
N192        N  0.00913951  0.04220529  0.60201887    -0.36100
N193        N  0.98350454  0.04217488  0.59606361    -0.28200
C194        C  0.97278146  0.06183191  0.62376477    -0.03500
C195        C  0.99251231  0.07509311  0.64906040     0.05100
C196        C  0.01543085  0.06213413  0.63403701     0.03200
H197        H  0.95192684  0.06523237  0.62645495     0.08300
H198        H  0.03512650  0.06614973  0.64657283     0.07200
C199        C  0.09278714  0.92748288  0.48036961    -0.02400
C200        C  0.89789492  0.93048734  0.48358308    -0.02400
N201        N  0.44495866  0.48190324  0.07175082    -0.27200
N202        N  0.45686966  0.45829914  0.07693470    -0.35100
C203        C  0.44122021  0.43877695  0.05897838     0.01100
C204        C  0.41883192  0.45054991  0.03863294     0.07100
C205        C  0.42191523  0.47809664  0.04837749    -0.06000
H206        H  0.44723849  0.41785387  0.05459028     0.07800
H207        H  0.40945583  0.49443357  0.03603131     0.09000
Cu208      Cu  0.49721065  0.45430966  0.09001522     0.44200
Cu209      Cu  0.46257616  0.51804073  0.09288491     0.42000
Cu210      Cu  0.53411329  0.51574459  0.09265981     0.43900
N211        N  0.53755125  0.45591116  0.07476560    -0.34600
N212        N  0.55047504  0.47894394  0.07033914    -0.28900
C213        C  0.57345187  0.47418034  0.04696532    -0.05000
C214        C  0.57547548  0.44655872  0.03634854     0.07300
C215        C  0.55238155  0.43577464  0.05598831     0.01100
H216        H  0.58665979  0.49001260  0.03524217     0.08700
H217        H  0.54548284  0.41521783  0.05094972     0.07800
N218        N  0.51202036  0.54689476  0.12435483    -0.36100
N219        N  0.48614125  0.54783305  0.12408906    -0.28200
C220        C  0.47812976  0.56936023  0.15093706    -0.03500
C221        C  0.49997506  0.58265847  0.16930483     0.05100
C222        C  0.52109920  0.56774996  0.15156156     0.03200
H223        H  0.45782992  0.57410300  0.15854194     0.08300
H224        H  0.54161205  0.57127897  0.15891080     0.07200
C225        C  0.59381806  0.43168018  0.99930822    -0.02400
N226        N  0.54895935  0.38914435  0.92276715    -0.27200
N227        N  0.53705917  0.41290894  0.92117746    -0.35100
C228        C  0.55260380  0.43149593  0.94247037     0.01100
C229        C  0.57489236  0.41878210  0.96135791     0.07100
C230        C  0.57182773  0.39177967  0.94728482    -0.06000
H231        H  0.54662712  0.45220754  0.94960418     0.07800
H232        H  0.58438206  0.37494211  0.95676151     0.09000
Cu233      Cu  0.49675884  0.41731015  0.90802196     0.44200
Cu234      Cu  0.53157775  0.35452521  0.89397153     0.42000
Cu235      Cu  0.46046977  0.35556460  0.90237583     0.43900
N236        N  0.45668053  0.41441540  0.92484123    -0.34600
N237        N  0.44444769  0.39098888  0.92901563    -0.28900
C238        C  0.42176968  0.39457205  0.95375656    -0.05000
C239        C  0.41911114  0.42191194  0.96540735     0.07300
C240        C  0.44150971  0.43379310  0.94503109     0.01100
H241        H  0.40912285  0.37813229  0.96483286     0.08700
H242        H  0.44770399  0.45458852  0.95009120     0.07800
N243        N  0.48138218  0.32823126  0.86023738    -0.36100
N244        N  0.50717478  0.32777848  0.85666778    -0.28200
C245        C  0.51419094  0.30807877  0.82475868    -0.03500
C246        C  0.49169207  0.29551428  0.80736774     0.05100
C247        C  0.47129202  0.30896346  0.83081568     0.03200
H248        H  0.53427272  0.30294817  0.81600578     0.08300
H249        H  0.45055534  0.30505585  0.82736747     0.07200
C250        C  0.40025681  0.43602936  0.00211985    -0.02400
N251        N  0.55546666  0.97008151  0.94682867    -0.27200
N252        N  0.54247969  0.94724747  0.94035668    -0.35100
C253        C  0.55689685  0.92677228  0.95842530     0.01100
C254        C  0.57979896  0.93726466  0.97908301     0.07100
C255        C  0.57807965  0.96495695  0.97030970    -0.06000
H256        H  0.54999069  0.90611483  0.96147690     0.07800
H257        H  0.59131220  0.98059840  0.98288417     0.09000
Cu258      Cu  0.50268213  0.94657332  0.92273947     0.44200
Cu259      Cu  0.54006613  0.00715906  0.92795375     0.42000
Cu260      Cu  0.46923107  0.01086231  0.93434592     0.43900
N261        N  0.46282035  0.95095090  0.93836720    -0.34600
N262        N  0.45165733  0.97425379  0.95031291    -0.28900
C263        C  0.42891583  0.96945095  0.97421586    -0.05000
C264        C  0.42527642  0.94156929  0.97691687     0.07300
C265        C  0.44694636  0.93076417  0.95216964     0.01100
H266        H  0.41685688  0.98510547  0.99069420     0.08700
H267        H  0.45232376  0.90955398  0.95024551     0.07800
N268        N  0.49249489  0.03947726  0.90010960    -0.36100
N269        N  0.51828061  0.03803965  0.89780273    -0.28200
C270        C  0.52728924  0.05811384  0.86913399    -0.03500
C271        C  0.50612406  0.07297824  0.85217871     0.05100
C272        C  0.48436452  0.06051631  0.87282807     0.03200
H273        H  0.54776469  0.06108320  0.86061005     0.08300
H274        H  0.46400609  0.06573143  0.86761546     0.07200
N275        N  0.45002059  0.87248134  0.06334271    -0.27200
N276        N  0.46204097  0.89510283  0.07625349    -0.35100
C277        C  0.44689242  0.91613235  0.06346408     0.01100
C278        C  0.42461736  0.90661436  0.03898894     0.07100
C279        C  0.42735034  0.87856240  0.04026165    -0.06000
H280        H  0.45298611  0.93708242  0.06638781     0.07800
H281        H  0.41473449  0.86366374  0.02321256     0.09000
Cu282      Cu  0.50179832  0.89704577  0.09558479     0.44200
Cu283      Cu  0.46662062  0.83505309  0.07720247     0.42000
Cu284      Cu  0.53796630  0.83495313  0.09079626     0.43900
N285        N  0.54253430  0.89556598  0.08514816    -0.34600
N286        N  0.55533651  0.87263986  0.07748356    -0.28900
C287        C  0.57860705  0.87823647  0.05598235    -0.05000
C288        C  0.58091225  0.90624664  0.04983421     0.07300
C289        C  0.55772641  0.91632693  0.07055148     0.01100
H290        H  0.59164898  0.86282500  0.04152581     0.08700
H291        H  0.55080219  0.93701547  0.06796862     0.07800
N292        N  0.51342930  0.80361787  0.11460059    -0.36100
N293        N  0.48764108  0.80413627  0.11007278    -0.28200
C294        C  0.47724449  0.78359566  0.13599442    -0.03500
C295        C  0.49734549  0.76915666  0.15769035     0.05100
C296        C  0.52005397  0.78232657  0.14304581     0.03200
H297        H  0.45645380  0.78032753  0.14080810     0.08300
H298        H  0.53973879  0.77808194  0.15548125     0.07200
C299        C  0.59874522  0.92195340  0.01334635    -0.02400
C300        C  0.40609653  0.92470874  0.00829942    -0.02400
C301        C  0.25215812  0.28131099  0.25433195    -0.02400
N302        N  0.30261475  0.12860163  0.31376598    -0.27200
N303        N  0.28017394  0.14024061  0.32560376    -0.35100
C304        C  0.26067095  0.12336786  0.31306495     0.01100
C305        C  0.27112003  0.10036141  0.28973637     0.07100
C306        C  0.29802605  0.10450576  0.29175852    -0.06000
H307        H  0.24019177  0.12896530  0.31436729     0.07800
H308        H  0.31315053  0.09219370  0.27490773     0.09000
Cu309      Cu  0.27694435  0.18185090  0.34101220     0.44200
Cu310      Cu  0.33781816  0.14786202  0.32524871     0.42000
Cu311      Cu  0.33657254  0.22130070  0.33632610     0.43900
N312        N  0.27811942  0.22358695  0.32653287    -0.34600
N313        N  0.30006218  0.23718952  0.31941917    -0.28900
C314        C  0.29457723  0.26075826  0.29662107    -0.05000
C315        C  0.26765516  0.26249695  0.28923179     0.07300
C316        C  0.25802570  0.23864768  0.31013146     0.01100
H317        H  0.30940858  0.27447043  0.28307468     0.08700
H318        H  0.23812682  0.23129783  0.30752116     0.07800
N319        N  0.36694813  0.19720279  0.36188120    -0.36100
N320        N  0.36708385  0.17051099  0.35740394    -0.28200
C321        C  0.38768618  0.16040290  0.38175754    -0.03500
C322        C  0.40135366  0.18167749  0.40278068     0.05100
C323        C  0.38774634  0.20480645  0.38906358     0.03200
H324        H  0.39205126  0.13900509  0.38443744     0.08300
H325        H  0.39201839  0.22551554  0.39955365     0.07200
C326        C  0.25532966  0.08074791  0.25659386    -0.02400
N327        N  0.20715876  0.12681758  0.19754430    -0.27200
N328        N  0.22936548  0.13902374  0.18625639    -0.35100
C329        C  0.24923576  0.12304443  0.20038447     0.01100
C330        C  0.23920872  0.10013628  0.22404688     0.07100
C331        C  0.21225901  0.10326975  0.22068500    -0.06000
H332        H  0.26957061  0.12913191  0.19928156     0.07800
H333        H  0.19737213  0.09050096  0.23684753     0.09000
Cu334      Cu  0.23189298  0.18030309  0.16836824     0.44200
Cu335      Cu  0.17124316  0.14418199  0.18396287     0.42000
Cu336      Cu  0.17133068  0.21722243  0.17033873     0.43900
N337        N  0.22942621  0.22226386  0.18081812    -0.34600
N338        N  0.20691304  0.23502349  0.18708782    -0.28900
C339        C  0.21116744  0.25890922  0.21007254    -0.05000
C340        C  0.23788529  0.26178281  0.21853443     0.07300
C341        C  0.24872378  0.23826727  0.19779885     0.01100
H342        H  0.19563727  0.27199706  0.22324057     0.08700
H343        H  0.26885605  0.23171260  0.20126647     0.07800
N344        N  0.14066953  0.19250173  0.14863669    -0.36100
N345        N  0.14064756  0.16593318  0.15439355    -0.28200
C346        C  0.11883786  0.15559968  0.13430925    -0.03500
C347        C  0.10425439  0.17666338  0.11469702     0.05100
C348        C  0.11878249  0.19981403  0.12465030     0.03200
H349        H  0.11445282  0.13417680  0.13317362     0.08300
H350        H  0.11407996  0.22047574  0.11489992     0.07200
N351        N  0.78069966  0.12857359  0.14283237    -0.27200
N352        N  0.75954455  0.14269934  0.15430121    -0.35100
C353        C  0.74465087  0.12798920  0.18499355     0.01100
C354        C  0.75744270  0.10379182  0.19623387     0.07100
C355        C  0.77990243  0.10456704  0.16677175    -0.06000
H356        H  0.72718811  0.13578068  0.20286035     0.07800
H357        H  0.79538022  0.08961149  0.16509086     0.09000
Cu358      Cu  0.75553095  0.18440632  0.14302138     0.44200
Cu359      Cu  0.81131646  0.14593117  0.10294566     0.42000
Cu360      Cu  0.81259361  0.22126200  0.11346011     0.43900
N361        N  0.75952908  0.22583605  0.15775255    -0.34600
N362        N  0.78169435  0.23906424  0.15128020    -0.28900
C363        C  0.78092333  0.26248973  0.17733628    -0.05000
C364        C  0.75711658  0.26393528  0.20243064     0.07300
C365        C  0.74377731  0.24076458  0.18687705     0.01100
H366        H  0.79724223  0.27631144  0.18057940     0.08700
H367        H  0.72534395  0.23352376  0.20152508     0.07800
N368        N  0.83942978  0.19790195  0.07445596    -0.36100
N369        N  0.83910389  0.17116283  0.07028775    -0.28200
C370        C  0.86082003  0.16314103  0.04601311    -0.03500
C371        C  0.87568693  0.18586230  0.03456339     0.05100
C372        C  0.86123674  0.20748639  0.05300735     0.03200
H373        H  0.86603869  0.14212675  0.04010212     0.08300
H374        H  0.86679160  0.22861848  0.05391246     0.07200
C375        C  0.74936357  0.08477923  0.23900981    -0.02400
N376        N  0.71898877  0.23799895  0.34455445    -0.27200
N377        N  0.73957618  0.22365163  0.33078399    -0.35100
C378        C  0.75339744  0.23797742  0.29794746     0.01100
C379        C  0.74051600  0.26233615  0.28807629     0.07100
C380        C  0.71916742  0.26195363  0.32037702    -0.06000
H381        H  0.77025708  0.22992060  0.27851112     0.07800
H382        H  0.70405990  0.27720439  0.32415296     0.09000
Cu383      Cu  0.74392657  0.18224205  0.34322563     0.44200
Cu384      Cu  0.68999311  0.22048974  0.38776117     0.42000
Cu385      Cu  0.68775465  0.14472988  0.37879298     0.43900
N386        N  0.73944210  0.14108238  0.32800476    -0.34600
N387        N  0.71769969  0.12752292  0.33693490    -0.28900
C388        C  0.71796643  0.10423211  0.31039899    -0.05000
C389        C  0.74085644  0.10335469  0.28224805     0.07300
C390        C  0.75432126  0.12664040  0.29658952     0.01100
H391        H  0.70199506  0.08987876  0.30971156     0.08700
H392        H  0.77229286  0.13413792  0.28037793     0.07800
N393        N  0.66194353  0.16883150  0.41935367    -0.36100
N394        N  0.66304341  0.19557958  0.42296560    -0.28200
C395        C  0.64234065  0.20440540  0.44919024    -0.03500
C396        C  0.62719234  0.18229525  0.46263992     0.05100
C397        C  0.64043357  0.16006437  0.44316419     0.03200
H398        H  0.63805794  0.22561116  0.45536277     0.08300
H399        H  0.63428300  0.13910902  0.44369842     0.07200
C400        C  0.74825997  0.28204038  0.24605090    -0.02400
C401        C  0.07871592  0.17469950  0.08899704    -0.03100
C402        C  0.06501995  0.15002284  0.08782518    -0.05700
C403        C  0.04023210  0.14847446  0.06662012    -0.20800
C404        C  0.02843452  0.17145209  0.04594309     0.24900
C405        C  0.04249239  0.19599840  0.04541417    -0.18400
C406        C  0.06737628  0.19753835  0.06664828    -0.08300
C407        C  0.00066821  0.16917842  0.03028295    -0.18600
C408        C  0.98699856  0.18872329  0.00715775    -0.23400
C409        C  0.95804771  0.18759955  0.00346058     0.27000
C410        C  0.94383312  0.21186182  0.00647169    -0.20200
C411        C  0.91671290  0.21140421  0.01317415    -0.09800
C412        C  0.90326675  0.18659254  0.01695620    -0.10400
C413        C  0.91723159  0.16241685  0.00851608    -0.03300
C414        C  0.94433651  0.16290386  0.00168479    -0.18400
H415        H  0.07297686  0.13193495  0.10447261     0.10700
H416        H  0.02989163  0.12931303  0.06769157     0.10700
H417        H  0.03423340  0.21435244  0.03041885     0.10400
H418        H  0.07741128  0.21682998  0.06630241     0.11500
H419        H  0.99046802  0.15106005  0.04227932     0.11600
H420        H  0.99647506  0.20736296  0.99598532     0.13500
H421        H  0.95389304  0.23119171  0.00681619     0.10000
H422        H  0.90664721  0.23053746  0.01784143     0.12100
H423        H  0.90756131  0.14294108  0.00943305     0.08700
H424        H  0.95455291  0.14384392  0.99679779     0.11500
C425        C  0.42533341  0.17965509  0.43300334    -0.03100
C426        C  0.43200420  0.15502976  0.45573642    -0.05700
C427        C  0.45617951  0.15194341  0.47894598    -0.20800
C428        C  0.47404896  0.17344732  0.48038806     0.24900
C429        C  0.46679789  0.19857769  0.45997869    -0.18400
C430        C  0.44260044  0.20165630  0.43672724    -0.08300
C431        C  0.50133112  0.16785218  0.49577636    -0.18600
C432        C  0.51775101  0.18740458  0.51125507    -0.23400
C433        C  0.54671300  0.18473324  0.50922395     0.27000
C434        C  0.56149545  0.20861107  0.50687509    -0.20200
C435        C  0.58802471  0.20773768  0.49462577    -0.09800
C436        C  0.60045988  0.18287168  0.48445208    -0.10400
C437        C  0.58625399  0.15877726  0.49149554    -0.03300
C438        C  0.55966518  0.15965613  0.50389716    -0.18400
H439        H  0.41889065  0.13783472  0.45442579     0.10700
H440        H  0.46135108  0.13238395  0.49417774     0.10700
H441        H  0.48034035  0.21540476  0.45895637     0.10400
H442        H  0.43808387  0.22081264  0.41932956     0.11500
H443        H  0.50844950  0.14747425  0.48894829     0.11600
H444        H  0.50987599  0.20743068  0.51912957     0.13500
H445        H  0.55216049  0.22819759  0.51156700     0.10000
H446        H  0.59828941  0.22676042  0.49088856     0.12100
H447        H  0.59528522  0.13918441  0.48560732     0.08700
H448        H  0.54935649  0.14065692  0.50758733     0.11500
C449        C  0.38907386  0.94289422  0.04315037    -0.03100
C450        C  0.39001161  0.94085048  0.09538211    -0.05700
C451        C  0.37458685  0.95738820  0.12601248    -0.20800
C452        C  0.35714134  0.97643432  0.10632049     0.24900
C453        C  0.35553071  0.97828047  0.05427936    -0.18400
C454        C  0.37117746  0.96176513  0.02341485    -0.08300
C455        C  0.34083067  0.99302651  0.14191347    -0.18600
C456        C  0.32442430  0.01328159  0.12879264    -0.23400
C457        C  0.30730076  0.02947418  0.16346392     0.27000
C458        C  0.28886225  0.04693802  0.14228426    -0.20200
C459        C  0.27228675  0.06295689  0.17145555    -0.09800
C460        C  0.27358149  0.06266648  0.22374550    -0.10400
C461        C  0.29170780  0.04452040  0.24514240    -0.03300
C462        C  0.30849831  0.02837137  0.21559928    -0.18400
H463        H  0.40245445  0.92632578  0.11365039     0.10700
H464        H  0.37621447  0.95505750  0.16568731     0.10700
H465        H  0.34215141  0.99214988  0.03672418     0.10400
H466        H  0.36930670  0.96373148  0.98373339     0.11500
H467        H  0.34244126  0.98793387  0.18069537     0.11600
H468        H  0.32285560  0.01836543  0.09005497     0.13500
H469        H  0.28707076  0.04815655  0.10245777     0.10000
H470        H  0.25830603  0.07535935  0.15198382     0.12100
H471        H  0.29309516  0.04313590  0.28498609     0.08700
H472        H  0.32236738  0.01532450  0.23397795     0.11500
C473        C  0.72750065  0.06652491  0.21643645    -0.03100
C474        C  0.70127933  0.07532659  0.21169132    -0.05700
C475        C  0.68213610  0.05866474  0.18983700    -0.20800
C476        C  0.68878921  0.03341870  0.16894290     0.24900
C477        C  0.71516735  0.02535455  0.17022540    -0.18400
C478        C  0.73416189  0.04176916  0.19274571    -0.08300
C479        C  0.66792196  0.01565134  0.14705932    -0.18600
C480        C  0.67222266  0.99899376  0.10794520    -0.23400
C481        C  0.65204186  0.98072956  0.08531507     0.27000
C482        C  0.63232409  0.96795949  0.11321021    -0.20200
C483        C  0.61525124  0.94903912  0.09108574    -0.09800
C484        C  0.61697764  0.94273451  0.04000556    -0.10400
C485        C  0.63656511  0.95618242  0.01244416    -0.03300
C486        C  0.65393406  0.97444794  0.03478524    -0.18400
H487        H  0.69542798  0.09526580  0.22425475     0.10700
H488        H  0.66210108  0.06581842  0.18827116     0.10700
H489        H  0.72119264  0.00612460  0.15442145     0.10400
H490        H  0.75428372  0.03489647  0.19160981     0.11500
H491        H  0.64827756  0.01721631  0.16229872     0.11600
H492        H  0.69123979  0.99957177  0.08989788     0.13500
H493        H  0.63059925  0.97189260  0.15249497     0.10000
H494        H  0.60082249  0.93945803  0.11445206     0.12100
H495        H  0.63863332  0.95224617  0.97320114     0.08700
H496        H  0.66898480  0.98378494  0.01229522     0.11500
C497        C  0.38259210  0.41515811  0.02967401    -0.03100
C498        C  0.36464283  0.39908104  0.00297358    -0.05700
C499        C  0.34822208  0.38039895  0.02691013    -0.20800
C500        C  0.34854719  0.37748559  0.07863943     0.24900
C501        C  0.36616717  0.39361967  0.10569294    -0.18400
C502        C  0.38270301  0.41216363  0.08180434    -0.08300
C503        C  0.33061180  0.35710850  0.10238273    -0.18600
C504        C  0.32404411  0.35691067  0.15108721    -0.23400
C505        C  0.30574858  0.33700348  0.17535432     0.27000
C506        C  0.30244784  0.33816066  0.22701559    -0.20200
C507        C  0.28543721  0.32036904  0.25165953    -0.09800
C508        C  0.27107743  0.30049074  0.22572091    -0.10400
C509        C  0.27418633  0.29968269  0.17363838    -0.03300
C510        C  0.29121827  0.31747896  0.14902844    -0.18400
H511        H  0.36342011  0.40093340  0.96316086     0.10700
H512        H  0.33495568  0.36831433  0.00478013     0.10700
H513        H  0.36763898  0.39188893  0.14540371     0.10400
H514        H  0.39540065  0.42417637  0.10501672     0.11500
H515        H  0.32217754  0.34211511  0.07783096     0.11600
H516        H  0.33214792  0.37241671  0.17505083     0.13500
H517        H  0.31310242  0.35300143  0.24864110     0.10000
H518        H  0.28349472  0.32206973  0.29144323     0.12100
H519        H  0.26342059  0.28546442  0.15105881     0.08700
H520        H  0.29251172  0.31584336  0.10927984     0.11500
C521        C  0.48999740  0.27076721  0.77631979    -0.03100
C522        C  0.46645653  0.25609068  0.77353993    -0.05700
C523        C  0.46616188  0.23002649  0.75334959    -0.20800
C524        C  0.48936873  0.21814182  0.73597165     0.24900
C525        C  0.51216563  0.23397228  0.73309856    -0.18400
C526        C  0.51247545  0.26008619  0.75323343    -0.08300
C527        C  0.48999255  0.18833909  0.73008874    -0.18600
C528        C  0.51043204  0.17388970  0.74697309    -0.23400
C529        C  0.50819381  0.14572569  0.76524115     0.27000
C530        C  0.53127053  0.13127092  0.77468389    -0.20200
C531        C  0.53055254  0.10710824  0.80128322    -0.09800
C532        C  0.50668454  0.09698287  0.81944943    -0.10400
C533        C  0.48343755  0.11079467  0.80789355    -0.03300
C534        C  0.48415542  0.13492365  0.78126770    -0.18400
H535        H  0.44858908  0.26377364  0.78998298     0.10700
H536        H  0.44827980  0.21829135  0.75538404     0.10700
H537        H  0.53013096  0.22566577  0.71797678     0.10400
H538        H  0.53068936  0.27123135  0.75294721     0.11500
H539        H  0.47163838  0.17827629  0.72192404     0.11600
H540        H  0.52874755  0.18410511  0.75500969     0.13500
H541        H  0.55005044  0.13929116  0.76322153     0.10000
H542        H  0.54888695  0.09699316  0.80886340     0.12100
H543        H  0.46467011  0.10370527  0.82100834     0.08700
H544        H  0.46593484  0.14571906  0.77623582     0.11500
C545        C  0.61086023  0.40977213  0.02593769    -0.03100
C546        C  0.63030748  0.39541421  0.99927683    -0.05700
C547        C  0.64814525  0.37810281  0.02317522    -0.20800
C548        C  0.64695451  0.37385916  0.07456412     0.24900
C549        C  0.62705299  0.38723165  0.10125829    -0.18400
C550        C  0.60950247  0.40494300  0.07758743    -0.08300
C551        C  0.66795635  0.35727672  0.09939155    -0.18600
C552        C  0.66501628  0.34434377  0.14327192    -0.23400
C553        C  0.68638336  0.32860034  0.16868876     0.27000
C554        C  0.67978862  0.30654209  0.19900324    -0.20200
C555        C  0.69910580  0.29172110  0.22433018    -0.09800
C556        C  0.72577389  0.29943327  0.22302121    -0.10400
C557        C  0.73224938  0.32109253  0.19093859    -0.03300
C558        C  0.71299516  0.33555534  0.16476198    -0.18400
H559        H  0.63232249  0.39841153  0.95980164     0.10700
H560        H  0.66326096  0.36826402  0.00137247     0.10700
H561        H  0.62566144  0.38505468  0.14097234     0.10400
H562        H  0.59543933  0.41534361  0.10075853     0.11500
H563        H  0.68645810  0.35516391  0.07988105     0.11600
H564        H  0.64585042  0.34430244  0.16070136     0.13500
H565        H  0.65956524  0.30015988  0.20191346     0.10000
H566        H  0.69290857  0.27352070  0.24287080     0.12100
H567        H  0.75253361  0.32676200  0.18573497     0.08700
H568        H  0.71902557  0.35238488  0.14187894     0.11500
C569        C  0.50046537  0.60593370  0.20440282    -0.03100
C570        C  0.52257483  0.61073151  0.23406816    -0.05700
C571        C  0.52222556  0.63112942  0.27016366    -0.20800
C572        C  0.50013784  0.64765377  0.27629431     0.24900
C573        C  0.47836143  0.64366726  0.24564749    -0.18400
C574        C  0.47844840  0.62285948  0.21022866    -0.08300
C575        C  0.49848886  0.66604711  0.31949165    -0.18600
C576        C  0.49224291  0.69251047  0.31755240    -0.23400
C577        C  0.49180471  0.70919959  0.27217485     0.27000
C578        C  0.47242496  0.72913096  0.26721555    -0.20200
C579        C  0.47366138  0.74789302  0.22870737    -0.09800
C580        C  0.49482536  0.74762309  0.19535769    -0.10400
C581        C  0.51414097  0.72751707  0.20004663    -0.03300
C582        C  0.51253568  0.70829509  0.23789621    -0.18400
H583        H  0.53978287  0.59802773  0.23095537     0.10700
H584        H  0.53902658  0.63366845  0.29408398     0.10700
H585        H  0.46088998  0.65586041  0.25063425     0.10400
H586        H  0.46114094  0.61982796  0.18790565     0.11500
H587        H  0.50100800  0.65698076  0.35569863     0.11600
H588        H  0.48846833  0.70292040  0.35236260     0.13500
H589        H  0.45659688  0.73053150  0.29388331     0.10000
H590        H  0.45867385  0.76337426  0.22642901     0.12100
H591        H  0.53066915  0.72693326  0.17488132     0.08700
H592        H  0.52817318  0.69363756  0.24186277     0.11500
C593        C  0.77137447  0.06721580  0.26252572    -0.03100
C594        C  0.79798762  0.07504131  0.26374396    -0.05700
C595        C  0.81682346  0.05925258  0.28827768    -0.20800
C596        C  0.80953756  0.03615702  0.31521854     0.24900
C597        C  0.78290899  0.02924692  0.31707405    -0.18400
C598        C  0.76421948  0.04472739  0.29198869    -0.08300
C599        C  0.83001420  0.01929597  0.34004337    -0.18600
C600        C  0.82561583  0.00547533  0.38235315    -0.23400
C601        C  0.84545097  0.98775151  0.40692787     0.27000
C602        C  0.84421677  0.98409448  0.45833362    -0.20200
C603        C  0.86147622  0.96639781  0.48236909    -0.09800
C604        C  0.88027290  0.95115953  0.45573725    -0.10400
C605        C  0.88119814  0.95482065  0.40378880    -0.03300
C606        C  0.86425269  0.97297637  0.37995184    -0.18400
H607        H  0.80441761  0.09381653  0.24745286     0.10700
H608        H  0.83711975  0.06556564  0.28738361     0.10700
H609        H  0.77641461  0.01164644  0.33744315     0.10400
H610        H  0.74386020  0.03900242  0.29570284     0.11500
H611        H  0.84949860  0.01907151  0.32386280     0.11600
H612        H  0.80690089  0.00793193  0.40101685     0.13500
H613        H  0.82975114  0.99497641  0.48009312     0.10000
H614        H  0.85987364  0.96421571  0.52208502     0.12100
H615        H  0.89467533  0.94349774  0.38077196     0.08700
H616        H  0.86531567  0.97468164  0.34010891     0.11500
C617        C  0.23713308  0.06212922  0.28809737    -0.03100
C618        C  0.23596425  0.06363816  0.34035395    -0.05700
C619        C  0.21878271  0.04735761  0.36769241    -0.20800
C620        C  0.20218547  0.02855478  0.34454544     0.24900
C621        C  0.20374118  0.02616404  0.29257846    -0.18400
C622        C  0.22091366  0.04265529  0.26498252    -0.08300
C623        C  0.18441046  0.01168772  0.37672856    -0.18600
C624        C  0.16392811  0.99668193  0.36045268    -0.23400
C625        C  0.14599576  0.97992858  0.39266234     0.27000
C626        C  0.12759580  0.96306882  0.36939502    -0.20200
C627        C  0.11042106  0.94675399  0.39674413    -0.09800
C628        C  0.11060552  0.94670660  0.44914525    -0.10400
C629        C  0.12917287  0.96368908  0.47243525    -0.03300
C630        C  0.14642153  0.98011295  0.44488112    -0.18400
H631        H  0.24820931  0.07740049  0.36105759     0.10700
H632        H  0.21846749  0.04957521  0.40756555     0.10700
H633        H  0.19198949  0.01149516  0.27287368     0.10400
H634        H  0.22141286  0.04035428  0.22515187     0.11500
H635        H  0.18842023  0.01226144  0.41601066     0.11600
H636        H  0.15980558  0.99646221  0.32116493     0.13500
H637        H  0.12664211  0.96221221  0.32940731     0.10000
H638        H  0.09736742  0.93386733  0.37589698     0.12100
H639        H  0.13044004  0.96411309  0.51237998     0.08700
H640        H  0.15994554  0.99280391  0.46502134     0.11500
C641        C  0.11411690  0.40964772  0.47797527    -0.04700
C642        C  0.13319433  0.39587305  0.50603868    -0.05700
C643        C  0.15113751  0.37780277  0.48362599    -0.20800
C644        C  0.15084254  0.37285024  0.43224575     0.24900
C645        C  0.13148621  0.38598700  0.40429703    -0.18400
C646        C  0.11378330  0.40412377  0.42643966    -0.08300
C647        C  0.17060067  0.35366895  0.40940324    -0.18600
C648        C  0.17611049  0.35231633  0.36018017    -0.23400
C649        C  0.19561454  0.33358653  0.33551760     0.27000
C650        C  0.19908995  0.33537181  0.28395176    -0.20200
C651        C  0.21694336  0.31859561  0.25864514    -0.09800
C652        C  0.23211349  0.29914519  0.28373523    -0.10400
C653        C  0.22870001  0.29757304  0.33572999    -0.03300
C654        C  0.21071262  0.31431100  0.36101816    -0.18400
H655        H  0.13448493  0.39947956  0.54548310     0.10700
H656        H  0.16558500  0.36791244  0.50657701     0.10700
H657        H  0.12963723  0.38238563  0.36504509     0.10400
H658        H  0.10008405  0.41391408  0.40202338     0.11500
H659        H  0.18126843  0.34079906  0.43466887     0.11600
H660        H  0.16612398  0.36616724  0.33566966     0.13500
H661        H  0.18791169  0.34994810  0.26287961     0.10000
H662        H  0.21896381  0.32082681  0.21899052     0.12100
H663        H  0.23990737  0.28353906  0.35770041     0.08700
H664        H  0.20894928  0.31198550  0.40057792     0.11500
C665        C  0.00448994  0.58661867  0.25486346    -0.03100
C666        C  0.02819854  0.60051864  0.24789690    -0.05700
C667        C  0.02853320  0.62574044  0.22478150    -0.20800
C668        C  0.00522666  0.63768959  0.20823875     0.24900
C669        C  0.98204766  0.62227597  0.20962647    -0.18400
C670        C  0.98168963  0.59707128  0.23299275    -0.08300
C671        C  0.00555042  0.66732725  0.19823216    -0.18600
C672        C  0.98393576  0.68295318  0.20140313    -0.23400
C673        C  0.98471366  0.71142919  0.21952077     0.27000
C674        C  0.96266236  0.72122241  0.24500257    -0.20200
C675        C  0.96401246  0.74509264  0.27266336    -0.09800
C676        C  0.98746499  0.75986793  0.27525184    -0.10400
C677        C  0.00890204  0.75134985  0.24639671    -0.03300
C678        C  0.00751318  0.72745074  0.21844756    -0.18400
H679        H  0.04636319  0.59284445  0.26275577     0.10700
H680        H  0.04680953  0.63682395  0.22330122     0.10700
H681        H  0.96383903  0.62992226  0.19498261     0.10400
H682        H  0.96322676  0.58650110  0.23577230     0.11500
H683        H  0.02462110  0.67689116  0.19932649     0.11600
H684        H  0.96482700  0.67349383  0.20152344     0.13500
H685        H  0.94476583  0.70946810  0.24622344     0.10000
H686        H  0.94700069  0.75108023  0.29399242     0.12100
H687        H  0.02698294  0.76275496  0.24627787     0.08700
H688        H  0.02459858  0.72128784  0.19754254     0.11500
C689        C  0.88317392  0.41340857  0.46700961    -0.03100
C690        C  0.85715358  0.42198849  0.45811640    -0.05700
C691        C  0.83934845  0.40583165  0.43213257    -0.20800
C692        C  0.84675479  0.38080466  0.41161777     0.24900
C693        C  0.87294125  0.37236152  0.41806412    -0.18400
C694        C  0.89087135  0.38855254  0.44483635    -0.08300
C695        C  0.82617998  0.36491764  0.38410887    -0.18600
C696        C  0.83050064  0.34349074  0.35358826    -0.23400
C697        C  0.80927970  0.32889590  0.32529726     0.27000
C698        C  0.81433070  0.30276927  0.30671029    -0.20200
C699        C  0.79524707  0.28827923  0.28025870    -0.09800
C700        C  0.77047931  0.29965867  0.26934898    -0.10400
C701        C  0.76537349  0.32578910  0.28905629    -0.03300
C702        C  0.78445523  0.34026452  0.31577838    -0.18400
H703        H  0.85027960  0.44165846  0.47026233     0.10700
H704        H  0.81959699  0.41336165  0.42714926     0.10700
H705        H  0.87973867  0.35332560  0.40275049     0.10400
H706        H  0.91091060  0.38164246  0.44787212     0.11500
H707        H  0.80619893  0.37186494  0.38910010     0.11600
H708        H  0.85032786  0.33596714  0.34909444     0.13500
H709        H  0.83303499  0.29316265  0.31367014     0.10000
H710        H  0.79988183  0.26773709  0.26925060     0.12100
H711        H  0.74629223  0.33502931  0.28505390     0.08700
H712        H  0.77949116  0.36038739  0.32872634     0.11500
C713        C  0.99410274  0.27214126  0.73042084    -0.03100
C714        C  0.01718835  0.26143145  0.75060628    -0.05700
C715        C  0.01748242  0.23530685  0.77014699    -0.20800
C716        C  0.99478060  0.21931739  0.76991248     0.24900
C717        C  0.97097355  0.23138749  0.75548719    -0.18400
C718        C  0.97070438  0.25751346  0.73593462    -0.08300
C719        C  0.99810815  0.18948119  0.77504060    -0.18600
C720        C  0.97869004  0.17154655  0.76726329    -0.23400
C721        C  0.98297372  0.14406912  0.74573580     0.27000
C722        C  0.96113073  0.13067951  0.72612236    -0.20200
C723        C  0.96419244  0.10784974  0.69613331    -0.09800
C724        C  0.98927265  0.09765649  0.68505245    -0.10400
C725        C  0.01106407  0.10980421  0.70758137    -0.03300
C726        C  0.00799954  0.13269937  0.73775063    -0.18400
H727        H  0.03544269  0.27244524  0.74871363     0.10700
H728        H  0.03602857  0.22682593  0.78183739     0.10700
H729        H  0.95270352  0.22044608  0.75569752     0.10400
H730        H  0.95234143  0.26534251  0.72220395     0.11500
H731        H  0.01815831  0.18239471  0.77638048     0.11600
H732        H  0.95855716  0.17841023  0.76856948     0.13500
H733        H  0.94159305  0.13874996  0.73175930     0.10000
H734        H  0.94677877  0.09890863  0.68049337     0.12100
H735        H  0.03063884  0.10222612  0.70083034     0.08700
H736        H  0.02547373  0.14167514  0.75299073     0.11500
C737        C  0.73147125  0.79671648  0.77529891    -0.03100
C738        C  0.71562773  0.81542981  0.74973840    -0.05700
C739        C  0.69741125  0.83194854  0.77491398    -0.20800
C740        C  0.69442181  0.83055740  0.82663353     0.24900
C741        C  0.71018345  0.81200557  0.85232152    -0.18400
C742        C  0.72849777  0.79577862  0.82739918    -0.08300
C743        C  0.67432284  0.84816675  0.85202063    -0.18600
C744        C  0.67290449  0.85219041  0.90170442    -0.23400
C745        C  0.65281754  0.86921441  0.92833385     0.27000
C746        C  0.65460456  0.87193561  0.98006106    -0.20200
C747        C  0.63672391  0.88791429  0.00690213    -0.09800
C748        C  0.61639250  0.90206217  0.98306239    -0.10400
C749        C  0.61445437  0.89886460  0.93106382    -0.03300
C750        C  0.63218406  0.88266420  0.90434596    -0.18400
H751        H  0.71740655  0.81727938  0.70999130     0.10700
H752        H  0.68560992  0.84596049  0.75375657     0.10700
H753        H  0.70848455  0.80950228  0.89182729     0.10400
H754        H  0.74027302  0.78260618  0.85004539     0.11500
H755        H  0.66048475  0.85832946  0.82816748     0.11600
H756        H  0.68753919  0.84289852  0.92502353     0.13500
H757        H  0.67014078  0.86181779  0.99996719     0.10000
H758        H  0.63914209  0.88980287  0.04654615     0.12100
H759        H  0.59958205  0.90916617  0.91000320     0.08700
H760        H  0.62959053  0.88116857  0.86482038     0.11500
C761        C  0.77069963  0.79832664  0.71797269    -0.03100
C762        C  0.78505388  0.81843557  0.74325881    -0.05700
C763        C  0.80117890  0.83676385  0.71766141    -0.20800
C764        C  0.80350422  0.83587549  0.66573952     0.24900
C765        C  0.78914072  0.81596632  0.64022868    -0.18400
C766        C  0.77299911  0.79774338  0.66568214    -0.08300
C767        C  0.82168645  0.85547011  0.64038534    -0.18600
C768        C  0.82395206  0.85868069  0.59062816    -0.23400
C769        C  0.84310902  0.87723974  0.56514697     0.27000
C770        C  0.84279071  0.87891619  0.51316372    -0.20200
C771        C  0.86055652  0.89549787  0.48749018    -0.09800
C772        C  0.87955591  0.91095632  0.51273553    -0.10400
C773        C  0.87955903  0.90937431  0.56503463    -0.03300
C774        C  0.86182525  0.89283283  0.59061678    -0.18400
H775        H  0.78368123  0.82001643  0.78314216     0.10700
H776        H  0.81191753  0.85177987  0.73870426     0.10700
H777        H  0.79026240  0.81398392  0.60051261     0.10400
H778        H  0.76224670  0.78337385  0.64342497     0.11500
H779        H  0.83371559  0.86764807  0.66463785     0.11600
H780        H  0.81125660  0.84713861  0.56650724     0.13500
H781        H  0.82864537  0.86733567  0.49211342     0.10000
H782        H  0.85937446  0.89642381  0.44756313     0.12100
H783        H  0.89297560  0.92117015  0.58714313     0.08700
H784        H  0.86312033  0.89256579  0.63039724     0.11500
C785        C  0.88845790  0.45393657  0.52652455    -0.03100
C786        C  0.89377683  0.48203092  0.52690725    -0.05700
C787        C  0.87905324  0.50001015  0.55648322    -0.20800
C788        C  0.85952775  0.49057543  0.58885102     0.24900
C789        C  0.85543438  0.46247884  0.59160955    -0.18400
C790        C  0.86985803  0.44457836  0.56157618    -0.08300
C791        C  0.84304919  0.51066277  0.61694915    -0.18600
C792        C  0.83012029  0.50534258  0.65969817    -0.23400
C793        C  0.81238289  0.52535886  0.68521197     0.27000
C794        C  0.79877278  0.54529092  0.65877041    -0.20200
C795        C  0.78100482  0.56268501  0.68254443    -0.09800
C796        C  0.77621894  0.56121711  0.73419916    -0.10400
C797        C  0.79006857  0.54114486  0.76051744    -0.03300
C798        C  0.80764133  0.52340144  0.73637167    -0.18400
H799        H  0.90977433  0.49049156  0.50626142     0.10700
H800        H  0.88324228  0.52150959  0.55455550     0.10700
H801        H  0.84061239  0.45422105  0.61586322     0.10400
H802        H  0.86597448  0.42306533  0.56474313     0.11500
H803        H  0.84206952  0.53101648  0.60194992     0.11600
H804        H  0.83294684  0.48585267  0.67739274     0.13500
H805        H  0.80104208  0.54695158  0.61911424     0.10000
H806        H  0.77077244  0.57685171  0.65923868     0.12100
H807        H  0.78689254  0.53889793  0.79988696     0.08700
H808        H  0.81753572  0.50800385  0.75780044     0.11500
C809        C  0.73497932  0.56085950  0.78717079    -0.03100
C810        C  0.72191115  0.54042510  0.76017258    -0.05700
C811        C  0.70358461  0.52317281  0.78287969    -0.20800
C812        C  0.69747979  0.52555126  0.83355606     0.24900
C813        C  0.71044663  0.54586109  0.86080594    -0.18400
C814        C  0.72893352  0.56294358  0.83826638    -0.08300
C815        C  0.67713990  0.50692305  0.85564747    -0.18600
C816        C  0.67164321  0.50465583  0.90470719    -0.23400
C817        C  0.65116128  0.48626114  0.92687083     0.27000
C818        C  0.65081082  0.48239641  0.97843276    -0.20200
C819        C  0.63216517  0.46554326  0.00113105    -0.09800
C820        C  0.61288943  0.45190334  0.97328934    -0.10400
C821        C  0.61318065  0.45611377  0.92141584    -0.03300
C822        C  0.63181052  0.47302185  0.89878120    -0.18400
H823        H  0.72593142  0.53780847  0.72109578     0.10700
H824        H  0.69405833  0.50784936  0.76050387     0.10700
H825        H  0.70637630  0.54902836  0.89960632     0.10400
H826        H  0.73825911  0.57783937  0.86165416     0.11500
H827        H  0.66664292  0.49417159  0.82974229     0.11600
H828        H  0.68305187  0.51634403  0.93085283     0.13500
H829        H  0.66526156  0.49230913  0.00145720     0.10000
H830        H  0.63298408  0.46283561  0.04081294     0.12100
H831        H  0.59927762  0.44618421  0.89742334     0.08700
H832        H  0.63073066  0.47561312  0.85919981     0.11500
C833        C  0.26192657  0.80411876  0.78750758    -0.03100
C834        C  0.26022219  0.80273930  0.83976957    -0.05700
C835        C  0.27673670  0.81791131  0.87035634    -0.20800
C836        C  0.29561090  0.83542815  0.85068070     0.24900
C837        C  0.29676463  0.83809521  0.79871568    -0.18400
C838        C  0.27999817  0.82288991  0.76778675    -0.08300
C839        C  0.31288120  0.85057504  0.88643904    -0.18600
C840        C  0.33490633  0.86417337  0.87413931    -0.23400
C841        C  0.35222714  0.87908034  0.91010156     0.27000
C842        C  0.37007307  0.89784459  0.89092476    -0.20200
C843        C  0.38716503  0.91217101  0.92170169    -0.09800
C844        C  0.38761776  0.90810148  0.97359478    -0.10400
C845        C  0.36933513  0.88944617  0.99294173    -0.03300
C846        C  0.35207320  0.87498834  0.96178013    -0.18400
H847        H  0.24606637  0.78999506  0.85811536     0.10700
H848        H  0.27479080  0.81573387  0.91003448     0.10700
H849        H  0.31034218  0.85197411  0.78155559     0.10400
H850        H  0.28148143  0.82538263  0.72812824     0.11500
H851        H  0.30713721  0.85002101  0.92502533     0.11600
H852        H  0.34063673  0.86492588  0.83556989     0.13500
H853        H  0.37068274  0.90172760  0.85154894     0.10000
H854        H  0.39971228  0.92678156  0.90382867     0.12100
H855        H  0.36849309  0.88598470  0.03240436     0.08700
H856        H  0.33894826  0.86047275  0.97846135     0.11500
C857        C  0.22601035  0.80504804  0.72228720    -0.03100
C858        C  0.20840595  0.82277854  0.74646388    -0.05700
C859        C  0.19122501  0.83950399  0.71969420    -0.20800
C860        C  0.19100467  0.83945913  0.66757050     0.24900
C861        C  0.20911802  0.82247978  0.64311795    -0.18400
C862        C  0.22628558  0.80574768  0.66983930    -0.08300
C863        C  0.17195280  0.85775282  0.64092513    -0.18600
C864        C  0.16711636  0.85745798  0.59141629    -0.23400
C865        C  0.14774552  0.87547944  0.56486509     0.27000
C866        C  0.14577717  0.87371887  0.51294235    -0.20200
C867        C  0.12815129  0.89006464  0.48633112    -0.09800
C868        C  0.11112048  0.90836344  0.51060213    -0.10400
C869        C  0.11340625  0.91020349  0.56280433    -0.03300
C870        C  0.13127697  0.89419358  0.58925071    -0.18400
H871        H  0.20775228  0.82345997  0.78647649     0.10700
H872        H  0.17786728  0.85251512  0.74004927     0.10700
H873        H  0.21048159  0.82207979  0.60326011     0.10400
H874        H  0.23983091  0.79349422  0.64860047     0.11500
H875        H  0.16121783  0.87185662  0.66416641     0.11600
H876        H  0.17763938  0.84306547  0.56837624     0.13500
H877        H  0.15820600  0.85975793  0.49258040     0.10000
H878        H  0.12788585  0.88848091  0.44638985     0.12100
H879        H  0.10183270  0.92448653  0.58401520     0.08700
H880        H  0.13190488  0.89680423  0.62887989     0.11500
C881        C  0.42033713  0.68974361  0.58537489    -0.03100
C882        C  0.43281115  0.71469745  0.57709708    -0.05700
C883        C  0.45720619  0.71563323  0.55386697    -0.20800
C884        C  0.46968680  0.69173994  0.53819074     0.24900
C885        C  0.45667971  0.66684340  0.54438656    -0.18400
C886        C  0.43226725  0.66591410  0.56757711    -0.08300
C887        C  0.49752057  0.69345894  0.52285034    -0.18600
C888        C  0.51135486  0.67262143  0.50378194    -0.23400
C889        C  0.54017953  0.67192058  0.50811738     0.27000
C890        C  0.55204519  0.64752764  0.52210373    -0.20200
C891        C  0.57775952  0.64736950  0.53930901    -0.09800
C892        C  0.59207043  0.67164352  0.54242458    -0.10400
C893        C  0.58109506  0.69546887  0.52302046    -0.03300
C894        C  0.55536343  0.69560983  0.50591057    -0.18400
H895        H  0.42423454  0.73355207  0.58972040     0.10700
H896        H  0.46682658  0.73506629  0.54984428     0.10700
H897        H  0.46561954  0.64780284  0.53393394     0.10400
H898        H  0.42329975  0.64630926  0.57291452     0.11500
H899        H  0.50775251  0.71179715  0.53382577     0.11600
H900        H  0.50167702  0.65397389  0.49309452     0.13500
H901        H  0.54076911  0.62895630  0.52352050     0.10000
H902        H  0.58565630  0.62851306  0.55304578     0.12100
H903        H  0.59186129  0.71433181  0.52306741     0.08700
H904        H  0.54700167  0.71452810  0.49331344     0.11500
C905        C  0.08335912  0.68396361  0.95858074    -0.03100
C906        C  0.07326713  0.65959926  0.97743866    -0.05700
C907        C  0.05033805  0.65960577  0.00563242    -0.20800
C908        C  0.03692336  0.68388575  0.01547335     0.24900
C909        C  0.04854199  0.70851158  0.00104561    -0.18400
C910        C  0.07137980  0.70849132  0.97259635    -0.08300
C911        C  0.00932827  0.68196140  0.03279546    -0.18600
C912        C  0.99172573  0.70179187  0.02478712    -0.23400
C913        C  0.96376610  0.69667957  0.01307228     0.27000
C914        C  0.94786157  0.71921801  0.00328625    -0.20200
C915        C  0.92409809  0.71612007  0.97866061    -0.09800
C916        C  0.91565870  0.69032687  0.96329637    -0.10400
C917        C  0.93035363  0.66752350  0.97710122    -0.03300
C918        C  0.95418004  0.67060708  0.00165120    -0.18400
H919        H  0.08224381  0.64030547  0.96867048     0.10700
H920        H  0.04212284  0.64033959  0.01683892     0.10700
H921        H  0.03973752  0.72788267  0.00968295     0.10400
H922        H  0.07897008  0.72775502  0.96023093     0.11500
H923        H  0.00249706  0.66195093  0.04297055     0.11600
H924        H  0.99843678  0.72215906  0.01719801     0.13500
H925        H  0.95463065  0.73952266  0.01177699     0.10000
H926        H  0.91297608  0.73413387  0.96995234     0.12100
H927        H  0.92435352  0.64731460  0.96638804     0.08700
H928        H  0.96561027  0.65254427  0.00804473     0.11500
C929        C  0.26690971  0.56684708  0.77790762    -0.03100
C930        C  0.28120609  0.54686933  0.75179297    -0.05700
C931        C  0.29885542  0.52957424  0.77604917    -0.20800
C932        C  0.30297052  0.53145612  0.82743335     0.24900
C933        C  0.28882252  0.55137175  0.85374739    -0.18400
C934        C  0.27104787  0.56850232  0.82964127    -0.08300
C935        C  0.32227483  0.51246831  0.85138815    -0.18600
C936        C  0.32662807  0.51049110  0.90082411    -0.23400
C937        C  0.34593081  0.49154110  0.92480625     0.27000
C938        C  0.34575248  0.48896852  0.97666245    -0.20200
C939        C  0.36334212  0.47163081  0.00097635    -0.09800
C940        C  0.38205439  0.45629374  0.97446107    -0.10400
C941        C  0.38210734  0.45900901  0.92225653    -0.03300
C942        C  0.36457123  0.47635588  0.89804358    -0.18400
H943        H  0.27863827  0.54463032  0.71224542     0.10700
H944        H  0.30935564  0.51455450  0.75436658     0.10700
H945        H  0.29124614  0.55410372  0.89308972     0.10400
H946        H  0.26064869  0.58298992  0.85242197     0.11500
H947        H  0.33298083  0.49922720  0.82646481     0.11600
H948        H  0.31522329  0.52296452  0.92592689     0.13500
H949        H  0.33173802  0.50032533  0.99866431     0.10000
H950        H  0.36222002  0.47000609  0.04084112     0.12100
H951        H  0.39544459  0.44756633  0.89914032     0.08700
H952        H  0.36596385  0.47767585  0.85828729     0.11500
C953        C  0.22716502  0.56695363  0.72192564    -0.03100
C954        C  0.21320738  0.54676835  0.74772372    -0.05700
C955        C  0.19529307  0.52972811  0.72350302    -0.20800
C956        C  0.19058139  0.53200961  0.67243816     0.24900
C957        C  0.20434195  0.55215445  0.64637475    -0.18400
C958        C  0.22241140  0.56908581  0.67049416    -0.08300
C959        C  0.17115430  0.51307527  0.64860383    -0.18600
C960        C  0.16687809  0.51055419  0.59921871    -0.23400
C961        C  0.14794304  0.49088367  0.57595418     0.27000
C962        C  0.14953490  0.48561155  0.52479831    -0.20200
C963        C  0.13256507  0.46706752  0.50159661    -0.09800
C964        C  0.11316522  0.45310667  0.52859709    -0.10400
C965        C  0.11150659  0.45885051  0.57998728    -0.03300
C966        C  0.12832174  0.47747234  0.60298483    -0.18400
H967        H  0.21619860  0.54421734  0.78703932     0.10700
H968        H  0.18507702  0.51453682  0.74499077     0.10700
H969        H  0.20131575  0.55518065  0.60729616     0.10400
H970        H  0.23249394  0.58385628  0.64807576     0.11500
H971        H  0.16054299  0.49991242  0.67361985     0.11600
H972        H  0.17839917  0.52264022  0.57384672     0.13500
H973        H  0.16427055  0.49566307  0.50259092     0.10000
H974        H  0.13481306  0.46330155  0.46234045     0.12100
H975        H  0.09740756  0.44889432  0.60352827     0.08700
H976        H  0.12563545  0.48120146  0.64206897     0.11500
loop_ 
_geom_bond_atom_site_label_1 
_geom_bond_atom_site_label_2 
_geom_bond_distance 
_geom_bond_site_symmetry_2 
_ccdc_geom_bond_type 
C1            C5   1.543       .  S
C1           C29   1.546       .  S
C1          C929   1.561       .  S
C1          C953   1.560       .  S
N2            N3   1.319       .  A
N2            C6   1.346       .  A
N2          Cu10   2.058       .  S
N3            C4   1.343       .  A
N3           Cu9   2.095       .  S
C4            C5   1.398       .  A
C4            H7   1.082       .  S
C5            C6   1.390       .  A
C6            H8   1.081       .  S
Cu9          N12   2.095       .  S
Cu10         N20   2.059       .  S
Cu11         N13   2.064       .  S
Cu11         N19   2.067       .  S
N12          N13   1.320       .  A
N12          C16   1.340       .  A
N13          C14   1.350       .  A
C14          C15   1.390       .  A
C14          H17   1.081       .  S
C15          C50   1.544       .  S
C15          C16   1.397       .  A
C16          H18   1.082       .  S
N19          N20   1.320       .  A
N19          C23   1.343       .  A
N20          C21   1.342       .  A
C21          C22   1.386       .  A
C21          H24   1.080       .  S
C22          C23   1.388       .  A
C22         C905   1.483       .  S
C23          H25   1.080       .  S
N26          N27   1.320       .  A
N26          C30   1.346       .  A
N26         Cu34   2.060       .  S
N27          C28   1.345       .  A
N27         Cu33   2.106       .  S
C28          C29   1.400       .  A
C28          H31   1.082       .  S
C29          C30   1.390       .  A
C30          H32   1.081       .  S
Cu33         N36   2.105       .  S
Cu34         N44   2.061       .  S
Cu35         N37   2.062       .  S
Cu35         N43   2.062       .  S
N36          N37   1.321       .  A
N36          C40   1.343       .  A
N37          C38   1.347       .  A
C38          C39   1.391       .  A
C38          H41   1.080       .  S
C39          C50   1.545       .  S
C39          C40   1.400       .  A
C40          H42   1.082       .  S
N43          N44   1.320       .  A
N43          C47   1.342       .  A
N44          C45   1.342       .  A
C45          C46   1.387       .  A
C45          H48   1.081       .  S
C46          C47   1.387       .  A
C46         C881   1.482       .  S
C47          H49   1.080       .  S
C50         C833   1.564       .  S
C50         C857   1.562       .  S
N51          N52   1.320       .  A
N51          C55   1.350       .  A
N51         Cu59   2.063       .  S
N52          C53   1.341       .  A
N52         Cu58   2.100       .  S
C53          C54   1.398       .  A
C53          H56   1.082       .  S
C54         C100   1.544       .  S
C54          C55   1.390       .  A
C55          H57   1.081       .  S
Cu58         N61   2.100       .  S
Cu59         N69   2.065       .  S
Cu60         N62   2.072       .  S
Cu60         N68   2.073       .  S
N61          N62   1.320       .  A
N61          C65   1.343       .  A
N62          C63   1.350       .  A
C63          C64   1.392       .  A
C63          H66   1.081       .  S
C64          C75   1.547       .  S
C64          C65   1.399       .  A
C65          H67   1.082       .  S
N68          N69   1.322       .  A
N68          C72   1.344       .  A
N69          C70   1.341       .  A
C70          C71   1.385       .  A
C70          H73   1.081       .  S
C71          C72   1.387       .  A
C71         C916   1.481       .  S
C72          H74   1.081       .  S
C75          C89   1.544       .  S
C75         C796   1.563       .  S
C75         C809   1.563       .  S
N76          N77   1.320       .  A
N76          C80   1.349       .  A
N76         Cu84   2.061       .  S
N77          C78   1.340       .  A
N77         Cu83   2.094       .  S
C78          C79   1.397       .  A
C78          H81   1.082       .  S
C79         C100   1.542       .  S
C79          C80   1.390       .  A
C80          H82   1.081       .  S
Cu83         N86   2.095       .  S
Cu84         N94   2.064       .  S
Cu85         N87   2.063       .  S
Cu85         N93   2.065       .  S
N86          N87   1.320       .  A
N86          C90   1.342       .  A
N87          C88   1.349       .  A
C88          C89   1.390       .  A
C88          H91   1.081       .  S
C89          C90   1.398       .  A
C90          H92   1.082       .  S
N93          N94   1.321       .  A
N93          C97   1.342       .  A
N94          C95   1.342       .  A
C95          C96   1.386       .  A
C95          H98   1.081       .  S
C96          C97   1.386       .  A
C96         C892   1.480       .  S
C97          H99   1.081       .  S
C100        C737   1.560       .  S
C100        C761   1.559       .  S
N101        N102   1.320       .  A
N101        C105   1.352       .  A
N101       Cu109   2.062       .  S
N102        C103   1.340       .  A
N102       Cu108   2.100       .  S
C103        C104   1.396       .  A
C103        H106   1.082       .  S
C104        C125   1.539       .  S
C104        C105   1.389       .  A
C105        H107   1.081       .  S
Cu108       N111   2.099   1_655  S
Cu109       N119   2.065       .  S
Cu110       N112   2.071       .  S
Cu110       N118   2.074       .  S
N111        N112   1.320       .  A
N111        C115   1.341       .  A
N112        C113   1.352       .  A
C113        C114   1.392       .  A
C113        H116   1.081       .  S
C114        C150   1.547       .  S
C114        C115   1.398       .  A
C115        H117   1.082       .  S
N118        N119   1.322   1_455  A
N118        C122   1.343       .  A
N119        C120   1.342       .  A
C120        C121   1.386       .  A
C120        H123   1.081       .  S
C121        C122   1.388   1_655  A
C121        C713   1.482       .  S
C122        H124   1.081       .  S
C125        C139   1.554       .  S
C125        C689   1.565       .  S
C125        C785   1.565       .  S
N126        N127   1.319       .  A
N126        C130   1.352       .  A
N126       Cu134   2.073       .  S
N127        C128   1.341       .  A
N127       Cu133   2.094       .  S
C128        C129   1.397       .  A
C128        H131   1.082       .  S
C129        C150   1.547       .  S
C129        C130   1.393       .  A
C130        H132   1.081       .  S
Cu133       N136   2.095   1_455  S
Cu134       N144   2.077       .  S
Cu135       N137   2.072       .  S
Cu135       N143   2.075       .  S
N136        N137   1.319       .  A
N136        C140   1.338       .  A
N137        C138   1.353       .  A
C138        C139   1.395       .  A
C138        H141   1.081       .  S
C139        C140   1.400       .  A
C140        H142   1.082       .  S
N143        N144   1.323   1_655  A
N143        C147   1.343       .  A
N144        C145   1.343       .  A
C145        C146   1.387       .  A
C145        H148   1.081       .  S
C146        C147   1.387   1_455  A
C146        C665   1.485       .  S
C147        H149   1.081       .  S
C150        C641   1.565       .  S
C150        C964   1.562       .  S
N151        N152   1.321       .  A
N151        C155   1.353       .  A
N151       Cu159   2.081       .  S
N152        C153   1.343       .  A
N152       Cu158   2.107   1_455  S
C153        C154   1.399       .  A
C153        H156   1.082       .  S
C154        C199   1.553       .  S
C154        C155   1.394       .  A
C155        H157   1.080       .  S
Cu158       N161   2.107       .  S
Cu159       N169   2.083       .  S
Cu160       N162   2.057       .  S
Cu160       N168   2.059       .  S
N161        N162   1.320       .  A
N161        C165   1.343       .  A
N162        C163   1.348       .  A
C163        C164   1.390       .  A
C163        H166   1.081       .  S
C164        C200   1.544       .  S
C164        C165   1.401       .  A
C165        H167   1.082       .  S
N168        N169   1.322   1_655  A
N168        C172   1.341       .  A
N169        C170   1.346       .  A
C170        C171   1.389   1_455  A
C170        H173   1.081       .  S
C171        C172   1.383       .  A
C171        C676   1.481       .  S
C172        H174   1.081       .  S
N175        N176   1.319       .  A
N175        C179   1.345       .  A
N175       Cu183   2.047   1_565  S
N176        C177   1.344       .  A
N176       Cu182   2.107       .  S
C177        C178   1.401       .  A
C177        H180   1.082       .  S
C178        C200   1.541       .  S
C178        C179   1.387       .  A
C179        H181   1.081       .  S
Cu182       N185   2.107   1_655  S
Cu183       N193   2.048       .  S
Cu184       N186   2.078   1_545  S
Cu184       N192   2.079       .  S
N185        N186   1.322       .  A
N185        C189   1.343       .  A
N186        C187   1.351       .  A
C187        C188   1.392       .  A
C187        H190   1.081       .  S
C188        C199   1.549       .  S
C188        C189   1.399       .  A
C189        H191   1.082       .  S
N192        N193   1.320   1_455  A
N192        C196   1.347       .  A
N193        C194   1.338       .  A
C194        C195   1.383       .  A
C194        H197   1.080       .  S
C195        C196   1.392   1_655  A
C195        C724   1.484       .  S
C196        H198   1.081       .  S
C199        C628   1.564       .  S
C199        C868   1.564       .  S
C200        C604   1.558       .  S
C200        C772   1.560       .  S
N201        N202   1.321       .  A
N201        C205   1.351       .  A
N201       Cu209   2.076       .  S
N202        C203   1.342       .  A
N202       Cu208   2.101       .  S
C203        C204   1.398       .  A
C203        H206   1.082       .  S
C204        C250   1.546       .  S
C204        C205   1.392       .  A
C205        H207   1.081       .  S
Cu208       N211   2.102       .  S
Cu209       N219   2.078       .  S
Cu210       N212   2.083       .  S
Cu210       N218   2.084       .  S
N211        N212   1.320       .  A
N211        C215   1.345       .  A
N212        C213   1.351       .  A
C213        C214   1.395       .  A
C213        H216   1.081       .  S
C214        C225   1.551   1_554  S
C214        C215   1.399       .  A
C215        H217   1.082       .  S
N218        N219   1.323       .  A
N218        C222   1.346       .  A
N219        C220   1.346       .  A
C220        C221   1.387       .  A
C220        H223   1.082       .  S
C221        C222   1.388       .  A
C221        C569   1.486       .  S
C222        H224   1.081       .  S
C225        C229   1.547       .  S
C225        C545   1.566   1_556  S
C225        C820   1.563       .  S
N226        N227   1.321       .  A
N226        C230   1.351       .  A
N226       Cu234   2.075       .  S
N227        C228   1.342       .  A
N227       Cu233   2.101       .  S
C228        C229   1.398       .  A
C228        H231   1.082       .  S
C229        C230   1.392       .  A
C230        H232   1.081       .  S
Cu233       N236   2.101       .  S
Cu234       N244   2.076       .  S
Cu235       N237   2.055       .  S
Cu235       N243   2.057       .  S
N236        N237   1.319       .  A
N236        C240   1.342       .  A
N237        C238   1.347       .  A
C238        C239   1.390       .  A
C238        H241   1.080       .  S
C239        C250   1.544   1_556  S
C239        C240   1.399       .  A
C240        H242   1.082       .  S
N243        N244   1.321       .  A
N243        C247   1.341       .  A
N244        C245   1.344       .  A
C245        C246   1.389       .  A
C245        H248   1.081       .  S
C246        C247   1.385       .  A
C246        C521   1.481       .  S
C247        H249   1.081       .  S
C250        C497   1.560       .  S
C250        C940   1.560   1_554  S
N251        N252   1.319       .  A
N251        C255   1.344       .  A
N251       Cu259   2.057   1_565  S
N252        C253   1.344       .  A
N252       Cu258   2.090       .  S
C253        C254   1.397       .  A
C253        H256   1.082       .  S
C254        C299   1.541   1_556  S
C254        C255   1.390       .  A
C255        H257   1.081       .  S
Cu258       N261   2.089       .  S
Cu259       N269   2.058       .  S
Cu260       N262   2.064   1_545  S
Cu260       N268   2.067       .  S
N261        N262   1.321       .  A
N261        C265   1.339       .  A
N262        C263   1.349       .  A
C263        C264   1.390       .  A
C263        H266   1.081       .  S
C264        C300   1.541   1_556  S
C264        C265   1.395       .  A
C265        H267   1.082       .  S
N268        N269   1.320       .  A
N268        C272   1.342       .  A
N269        C270   1.341       .  A
C270        C271   1.386       .  A
C270        H273   1.081       .  S
C271        C272   1.388       .  A
C271        C532   1.482       .  S
C272        H274   1.081       .  S
N275        N276   1.320       .  A
N275        C279   1.351       .  A
N275       Cu283   2.067       .  S
N276        C277   1.341       .  A
N276       Cu282   2.101       .  S
C277        C278   1.399       .  A
C277        H280   1.082       .  S
C278        C300   1.546       .  S
C278        C279   1.391       .  A
C279        H281   1.081       .  S
Cu282       N285   2.100       .  S
Cu283       N293   2.070       .  S
Cu284       N286   2.093       .  S
Cu284       N292   2.094       .  S
N285        N286   1.321       .  A
N285        C289   1.346       .  A
N286        C287   1.351       .  A
C287        C288   1.397       .  A
C287        H290   1.081       .  S
C288        C299   1.552       .  S
C288        C289   1.398       .  A
C289        H291   1.082       .  S
N292        N293   1.324       .  A
N292        C296   1.348       .  A
N293        C294   1.344       .  A
C294        C295   1.383       .  A
C294        H297   1.082       .  S
C295        C296   1.388       .  A
C295        C580   1.481       .  S
C296        H298   1.082       .  S
C299        C484   1.561       .  S
C299        C748   1.559   1_554  S
C300        C449   1.560       .  S
C300        C844   1.563   1_554  S
C301        C315   1.546       .  S
C301        C340   1.547       .  S
C301        C508   1.560       .  S
C301        C652   1.562       .  S
N302        N303   1.319       .  A
N302        C306   1.348       .  A
N302       Cu310   2.059       .  S
N303        C304   1.342       .  A
N303       Cu309   2.098       .  S
C304        C305   1.400       .  A
C304        H307   1.082       .  S
C305        C326   1.545       .  S
C305        C306   1.391       .  A
C306        H308   1.080       .  S
Cu309       N312   2.098       .  S
Cu310       N320   2.060       .  S
Cu311       N313   2.075       .  S
Cu311       N319   2.075       .  S
N312        N313   1.321       .  A
N312        C316   1.344       .  A
N313        C314   1.348       .  A
C314        C315   1.393       .  A
C314        H317   1.081       .  S
C315        C316   1.397       .  A
C316        H318   1.082       .  S
N319        N320   1.321       .  A
N319        C323   1.347       .  A
N320        C321   1.340       .  A
C321        C322   1.382       .  A
C321        H324   1.081       .  S
C322        C323   1.388       .  A
C322        C425   1.478       .  S
C323        H325   1.081       .  S
C326        C330   1.542       .  S
C326        C460   1.562       .  S
C326        C617   1.561       .  S
N327        N328   1.320       .  A
N327        C331   1.347       .  A
N327       Cu335   2.058       .  S
N328        C329   1.342       .  A
N328       Cu334   2.099       .  S
C329        C330   1.398       .  A
C329        H332   1.082       .  S
C330        C331   1.388       .  A
C331        H333   1.081       .  S
Cu334       N337   2.099       .  S
Cu335       N345   2.060       .  S
Cu336       N338   2.070       .  S
Cu336       N344   2.071       .  S
N337        N338   1.320       .  A
N337        C341   1.344       .  A
N338        C339   1.348       .  A
C339        C340   1.392       .  A
C339        H342   1.080       .  S
C340        C341   1.399       .  A
C341        H343   1.082       .  S
N344        N345   1.320       .  A
N344        C348   1.344       .  A
N345        C346   1.341       .  A
C346        C347   1.386       .  A
C346        H349   1.081       .  S
C347        C348   1.388       .  A
C347        C401   1.483       .  S
C348        H350   1.081       .  S
N351        N352   1.320       .  A
N351        C355   1.353       .  A
N351       Cu359   2.084       .  S
N352        C353   1.341       .  A
N352       Cu358   2.091       .  S
C353        C354   1.395       .  A
C353        H356   1.082       .  S
C354        C375   1.548       .  S
C354        C355   1.395       .  A
C355        H357   1.081       .  S
Cu358       N361   2.090       .  S
Cu359       N369   2.086       .  S
Cu360       N362   2.070       .  S
Cu360       N368   2.072       .  S
N361        N362   1.319       .  A
N361        C365   1.341       .  A
N362        C363   1.351       .  A
C363        C364   1.392       .  A
C363        H366   1.081       .  S
C364        C400   1.542       .  S
C364        C365   1.395       .  A
C365        H367   1.082       .  S
N368        N369   1.323       .  A
N368        C372   1.342       .  A
N369        C370   1.345       .  A
C370        C371   1.390       .  A
C370        H373   1.081       .  S
C371        C372   1.386       .  A
C371        C412   1.486       .  S
C372        H374   1.081       .  S
C375        C389   1.543       .  S
C375        C473   1.560       .  S
C375        C593   1.558       .  S
N376        N377   1.318       .  A
N376        C380   1.353       .  A
N376       Cu384   2.075       .  S
N377        C378   1.338       .  A
N377       Cu383   2.083       .  S
C378        C379   1.396       .  A
C378        H381   1.082       .  S
C379        C400   1.550       .  S
C379        C380   1.395       .  A
C380        H382   1.081       .  S
Cu383       N386   2.082       .  S
Cu384       N394   2.078       .  S
Cu385       N387   2.078       .  S
Cu385       N393   2.080       .  S
N386        N387   1.319       .  A
N386        C390   1.340       .  A
N387        C388   1.352       .  A
C388        C389   1.394       .  A
C388        H391   1.081       .  S
C389        C390   1.394       .  A
C390        H392   1.082       .  S
N393        N394   1.324       .  A
N393        C397   1.345       .  A
N394        C395   1.342       .  A
C395        C396   1.387       .  A
C395        H398   1.080       .  S
C396        C397   1.388       .  A
C396        C436   1.486       .  S
C397        H399   1.081       .  S
C400        C556   1.565       .  S
C400        C700   1.563       .  S
C401        C402   1.405       .  A
C401        C406   1.406       .  A
C402        C403   1.394       .  A
C402        H415   1.081       .  S
C403        C404   1.402       .  A
C403        H416   1.084       .  S
C404        C405   1.409       .  A
C404        C407   1.486       .  S
C405        C406   1.398       .  A
C405        H417   1.080       .  S
C406        H418   1.081       .  S
C407        C408   1.347   1_455  D
C407        H419   1.085   1_455  S
C408        C409   1.484       .  S
C408        H420   1.083   1_554  S
C409        C410   1.401       .  A
C409        C414   1.407       .  A
C410        C411   1.397       .  A
C410        H421   1.084       .  S
C411        C412   1.408       .  A
C411        H422   1.081       .  S
C412        C413   1.406       .  A
C413        C414   1.396       .  A
C413        H423   1.081       .  S
C414        H424   1.082   1_554  S
C425        C426   1.406       .  A
C425        C430   1.403       .  A
C426        C427   1.396       .  A
C426        H439   1.082       .  S
C427        C428   1.401       .  A
C427        H440   1.084       .  S
C428        C429   1.409       .  A
C428        C431   1.482       .  S
C429        C430   1.397       .  A
C429        H441   1.082       .  S
C430        H442   1.082       .  S
C431        C432   1.345       .  D
C431        H443   1.083       .  S
C432        C433   1.486       .  S
C432        H444   1.086       .  S
C433        C434   1.401       .  A
C433        C438   1.408       .  A
C434        C435   1.395       .  A
C434        H445   1.083       .  S
C435        C436   1.406       .  A
C435        H446   1.080       .  S
C436        C437   1.407       .  A
C437        C438   1.398       .  A
C437        H447   1.081       .  S
C438        H448   1.080       .  S
C449        C450   1.418       .  A
C449        C454   1.412       .  A
C450        C451   1.400       .  A
C450        H463   1.080       .  S
C451        C452   1.402       .  A
C451        H464   1.083       .  S
C452        C453   1.413       .  A
C452        C455   1.509       .  S
C453        C454   1.409       .  A
C453        H465   1.079       .  S
C454        H466   1.083   1_554  S
C455        C456   1.353   1_565  D
C455        H467   1.083       .  S
C456        C457   1.506       .  S
C456        H468   1.082       .  S
C457        C458   1.401       .  A
C457        C462   1.413       .  A
C458        C459   1.397       .  A
C458        H469   1.083       .  S
C459        C460   1.416       .  A
C459        H470   1.080       .  S
C460        C461   1.414       .  A
C461        C462   1.413       .  A
C461        H471   1.083       .  S
C462        H472   1.080       .  S
C473        C474   1.414       .  A
C473        C478   1.417       .  A
C474        C475   1.408       .  A
C474        H487   1.080       .  S
C475        C476   1.406       .  A
C475        H488   1.083       .  S
C476        C477   1.405       .  A
C476        C479   1.502       .  S
C477        C478   1.403       .  A
C477        H489   1.082       .  S
C478        H490   1.082       .  S
C479        C480   1.353   1_545  D
C479        H491   1.086       .  S
C480        C481   1.500       .  S
C480        H492   1.086       .  S
C481        C482   1.408       .  A
C481        C486   1.403       .  A
C482        C483   1.410       .  A
C482        H493   1.082       .  S
C483        C484   1.417       .  A
C483        H494   1.080       .  S
C484        C485   1.414       .  A
C485        C486   1.401       .  A
C485        H495   1.083   1_554  S
C486        H496   1.083       .  S
C497        C498   1.411       .  A
C497        C502   1.418       .  A
C498        C499   1.406       .  A
C498        H511   1.083   1_554  S
C499        C500   1.407       .  A
C499        H512   1.083       .  S
C500        C501   1.407       .  A
C500        C503   1.506       .  S
C501        C502   1.404       .  A
C501        H513   1.081       .  S
C502        H514   1.080       .  S
C503        C504   1.358       .  D
C503        H515   1.082       .  S
C504        C505   1.508       .  S
C504        H516   1.084       .  S
C505        C506   1.408       .  A
C505        C510   1.408       .  A
C506        C507   1.405       .  A
C506        H517   1.083       .  S
C507        C508   1.411       .  A
C507        H518   1.083       .  S
C508        C509   1.417       .  A
C509        C510   1.405       .  A
C509        H519   1.080       .  S
C510        H520   1.079       .  S
C521        C522   1.406       .  A
C521        C526   1.406       .  A
C522        C523   1.394       .  A
C522        H535   1.081       .  S
C523        C524   1.401       .  A
C523        H536   1.083       .  S
C524        C525   1.405       .  A
C524        C527   1.478       .  S
C525        C526   1.396       .  A
C525        H537   1.083       .  S
C526        H538   1.081       .  S
C527        C528   1.346       .  D
C527        H539   1.084       .  S
C528        C529   1.481       .  S
C528        H540   1.085       .  S
C529        C530   1.402       .  A
C529        C534   1.407       .  A
C530        C531   1.395       .  A
C530        H541   1.083       .  S
C531        C532   1.406       .  A
C531        H542   1.081       .  S
C532        C533   1.405       .  A
C533        C534   1.394       .  A
C533        H543   1.080       .  S
C534        H544   1.081       .  S
C545        C546   1.413   1_554  A
C545        C550   1.420       .  A
C546        C547   1.409   1_556  A
C546        H559   1.083       .  S
C547        C548   1.408       .  A
C547        H560   1.083       .  S
C548        C549   1.407       .  A
C548        C551   1.509       .  S
C549        C550   1.408       .  A
C549        H561   1.082       .  S
C550        H562   1.079       .  S
C551        C552   1.358       .  D
C551        H563   1.086       .  S
C552        C553   1.508       .  S
C552        H564   1.085       .  S
C553        C554   1.406       .  A
C553        C558   1.406       .  A
C554        C555   1.409       .  A
C554        H565   1.083       .  S
C555        C556   1.415       .  A
C555        H566   1.078       .  S
C556        C557   1.418       .  A
C557        C558   1.409       .  A
C557        H567   1.082       .  S
C558        H568   1.082       .  S
C569        C570   1.407       .  A
C569        C574   1.408       .  A
C570        C571   1.398       .  A
C570        H583   1.082       .  S
C571        C572   1.400       .  A
C571        H584   1.083       .  S
C572        C573   1.403       .  A
C572        C575   1.478       .  S
C573        C574   1.400       .  A
C573        H585   1.083       .  S
C574        H586   1.082       .  S
C575        C576   1.345       .  D
C575        H587   1.086       .  S
C576        C577   1.481       .  S
C576        H588   1.087       .  S
C577        C578   1.401       .  A
C577        C582   1.406       .  A
C578        C579   1.398       .  A
C578        H589   1.084       .  S
C579        C580   1.406       .  A
C579        H590   1.083       .  S
C580        C581   1.404       .  A
C581        C582   1.401       .  A
C581        H591   1.083       .  S
C582        H592   1.083       .  S
C593        C594   1.414       .  A
C593        C598   1.417       .  A
C594        C595   1.407       .  A
C594        H607   1.079       .  S
C595        C596   1.405       .  A
C595        H608   1.083       .  S
C596        C597   1.403       .  A
C596        C599   1.498       .  S
C597        C598   1.401       .  A
C597        H609   1.082       .  S
C598        H610   1.082       .  S
C599        C600   1.353       .  D
C599        H611   1.086       .  S
C600        C601   1.497   1_545  S
C600        H612   1.086       .  S
C601        C602   1.404       .  A
C601        C606   1.405       .  A
C602        C603   1.403       .  A
C602        H613   1.083       .  S
C603        C604   1.412       .  A
C603        H614   1.083       .  S
C604        C605   1.418       .  A
C605        C606   1.405       .  A
C605        H615   1.080       .  S
C606        H616   1.082       .  S
C617        C618   1.416       .  A
C617        C622   1.414       .  A
C618        C619   1.402       .  A
C618        H631   1.079       .  S
C619        C620   1.404       .  A
C619        H632   1.083       .  S
C620        C621   1.412       .  A
C620        C623   1.509       .  S
C621        C622   1.411       .  A
C621        H633   1.080       .  S
C622        H634   1.083       .  S
C623        C624   1.356   1_545  D
C623        H635   1.083       .  S
C624        C625   1.511       .  S
C624        H636   1.084       .  S
C625        C626   1.404       .  A
C625        C630   1.412       .  A
C626        C627   1.403       .  A
C626        H637   1.083       .  S
C627        C628   1.417       .  A
C627        H638   1.080       .  S
C628        C629   1.414       .  A
C629        C630   1.411       .  A
C629        H639   1.083       .  S
C630        H640   1.080       .  S
C641        C642   1.413       .  A
C641        C646   1.419       .  A
C642        C643   1.411       .  A
C642        H655   1.083       .  S
C643        C644   1.410       .  A
C643        H656   1.083       .  S
C644        C645   1.406       .  A
C644        C647   1.511       .  S
C645        C646   1.402       .  A
C645        H657   1.080       .  S
C646        H658   1.079       .  S
C647        C648   1.361       .  D
C647        H659   1.083       .  S
C648        C649   1.509       .  S
C648        H660   1.083       .  S
C649        C650   1.408       .  A
C649        C654   1.408       .  A
C650        C651   1.405       .  A
C650        H661   1.083       .  S
C651        C652   1.410       .  A
C651        H662   1.083       .  S
C652        C653   1.419       .  A
C653        C654   1.408       .  A
C653        H663   1.079       .  S
C654        H664   1.080       .  S
C665        C666   1.405       .  A
C665        C670   1.406   1_455  A
C666        C667   1.395       .  A
C666        H679   1.081       .  S
C667        C668   1.403       .  A
C667        H680   1.083       .  S
C668        C669   1.408   1_455  A
C668        C671   1.488       .  S
C669        C670   1.397       .  A
C669        H681   1.080       .  S
C670        H682   1.081       .  S
C671        C672   1.348   1_455  D
C671        H683   1.083       .  S
C672        C673   1.486       .  S
C672        H684   1.082       .  S
C673        C674   1.403       .  A
C673        C678   1.409   1_655  A
C674        C675   1.394       .  A
C674        H685   1.084       .  S
C675        C676   1.405       .  A
C675        H686   1.081       .  S
C676        C677   1.405   1_655  A
C677        C678   1.399       .  A
C677        H687   1.082       .  S
C678        H688   1.081       .  S
C689        C690   1.416       .  A
C689        C694   1.417       .  A
C690        C691   1.399       .  A
C690        H703   1.081       .  S
C691        C692   1.402       .  A
C691        H704   1.084       .  S
C692        C693   1.412       .  A
C692        C695   1.508       .  S
C693        C694   1.415       .  A
C693        H705   1.081       .  S
C694        H706   1.082       .  S
C695        C696   1.355       .  D
C695        H707   1.084       .  S
C696        C697   1.510       .  S
C696        H708   1.084       .  S
C697        C698   1.404       .  A
C697        C702   1.411       .  A
C698        C699   1.405       .  A
C698        H709   1.083       .  S
C699        C700   1.416       .  A
C699        H710   1.080       .  S
C700        C701   1.416       .  A
C701        C702   1.408       .  A
C701        H711   1.081       .  S
C702        H712   1.080       .  S
C713        C714   1.405   1_655  A
C713        C718   1.405       .  A
C714        C715   1.395       .  A
C714        H727   1.081       .  S
C715        C716   1.403   1_455  A
C715        H728   1.084       .  S
C716        C717   1.410       .  A
C716        C719   1.488       .  S
C717        C718   1.395       .  A
C717        H729   1.079       .  S
C718        H730   1.081       .  S
C719        C720   1.346       .  D
C719        H731   1.082   1_655  S
C720        C721   1.488       .  S
C720        H732   1.083       .  S
C721        C722   1.402       .  A
C721        C726   1.411   1_655  A
C722        C723   1.393       .  A
C722        H733   1.084       .  S
C723        C724   1.406       .  A
C723        H734   1.080       .  S
C724        C725   1.404   1_655  A
C725        C726   1.398       .  A
C725        H735   1.082       .  S
C726        H736   1.079       .  S
C737        C738   1.412       .  A
C737        C742   1.418       .  A
C738        C739   1.408       .  A
C738        H751   1.083       .  S
C739        C740   1.409       .  A
C739        H752   1.083       .  S
C740        C741   1.406       .  A
C740        C743   1.506       .  S
C741        C742   1.399       .  A
C741        H753   1.079       .  S
C742        H754   1.079       .  S
C743        C744   1.359       .  D
C743        H755   1.083       .  S
C744        C745   1.504       .  S
C744        H756   1.082       .  S
C745        C746   1.408       .  A
C745        C750   1.407       .  A
C746        C747   1.404   1_556  A
C746        H757   1.083       .  S
C747        C748   1.410   1_554  A
C747        H758   1.083       .  S
C748        C749   1.418       .  A
C749        C750   1.403       .  A
C749        H759   1.079       .  S
C750        H760   1.080       .  S
C761        C762   1.410       .  A
C761        C766   1.419       .  A
C762        C763   1.407       .  A
C762        H775   1.083       .  S
C763        C764   1.409       .  A
C763        H776   1.083       .  S
C764        C765   1.406       .  A
C764        C767   1.507       .  S
C765        C766   1.402       .  A
C765        H777   1.079       .  S
C766        H778   1.079       .  S
C767        C768   1.360       .  D
C767        H779   1.081       .  S
C768        C769   1.508       .  S
C768        H780   1.082       .  S
C769        C770   1.409       .  A
C769        C774   1.407       .  A
C770        C771   1.406       .  A
C770        H781   1.083       .  S
C771        C772   1.411       .  A
C771        H782   1.083       .  S
C772        C773   1.417       .  A
C773        C774   1.403       .  A
C773        H783   1.080       .  S
C774        H784   1.078       .  S
C785        C786   1.412       .  A
C785        C790   1.419       .  A
C786        C787   1.407       .  A
C786        H799   1.074       .  S
C787        C788   1.406       .  A
C787        H800   1.084       .  S
C788        C789   1.404       .  A
C788        C791   1.501       .  S
C789        C790   1.403       .  A
C789        H801   1.081       .  S
C790        H802   1.083       .  S
C791        C792   1.357       .  D
C791        H803   1.086       .  S
C792        C793   1.503       .  S
C792        H804   1.086       .  S
C793        C794   1.403       .  A
C793        C798   1.408       .  A
C794        C795   1.401       .  A
C794        H805   1.082       .  S
C795        C796   1.420       .  A
C795        H806   1.079       .  S
C796        C797   1.413       .  A
C797        C798   1.409       .  A
C797        H807   1.083       .  S
C798        H808   1.083       .  S
C809        C810   1.411       .  A
C809        C814   1.418       .  A
C810        C811   1.407       .  A
C810        H823   1.083       .  S
C811        C812   1.409       .  A
C811        H824   1.083       .  S
C812        C813   1.408       .  A
C812        C815   1.511       .  S
C813        C814   1.406       .  A
C813        H825   1.080       .  S
C814        H826   1.079       .  S
C815        C816   1.360       .  D
C815        H827   1.083       .  S
C816        C817   1.510       .  S
C816        H828   1.082       .  S
C817        C818   1.408       .  A
C817        C822   1.408       .  A
C818        C819   1.406   1_556  A
C818        H829   1.083   1_556  S
C819        C820   1.411   1_554  A
C819        H830   1.083       .  S
C820        C821   1.419       .  A
C821        C822   1.407       .  A
C821        H831   1.080       .  S
C822        H832   1.080       .  S
C833        C834   1.418       .  A
C833        C838   1.413       .  A
C834        C835   1.399       .  A
C834        H847   1.080       .  S
C835        C836   1.401       .  A
C835        H848   1.083       .  S
C836        C837   1.413       .  A
C836        C839   1.507       .  S
C837        C838   1.413       .  A
C837        H849   1.080       .  S
C838        H850   1.083       .  S
C839        C840   1.352       .  D
C839        H851   1.084       .  S
C840        C841   1.507       .  S
C840        H852   1.083       .  S
C841        C842   1.400       .  A
C841        C846   1.413       .  A
C842        C843   1.398       .  A
C842        H853   1.083       .  S
C843        C844   1.419       .  A
C843        H854   1.080       .  S
C844        C845   1.413       .  A
C845        C846   1.413       .  A
C845        H855   1.082   1_556  S
C846        H856   1.081       .  S
C857        C858   1.410       .  A
C857        C862   1.419       .  A
C858        C859   1.408       .  A
C858        H871   1.083       .  S
C859        C860   1.410       .  A
C859        H872   1.083       .  S
C860        C861   1.408       .  A
C860        C863   1.513       .  S
C861        C862   1.407       .  A
C861        H873   1.080       .  S
C862        H874   1.080       .  S
C863        C864   1.362       .  D
C863        H875   1.083       .  S
C864        C865   1.514       .  S
C864        H876   1.083       .  S
C865        C866   1.410       .  A
C865        C870   1.408       .  A
C866        C867   1.409       .  A
C866        H877   1.083       .  S
C867        C868   1.411       .  A
C867        H878   1.083       .  S
C868        C869   1.419       .  A
C869        C870   1.406       .  A
C869        H879   1.081       .  S
C870        H880   1.079       .  S
C881        C882   1.405       .  A
C881        C886   1.405       .  A
C882        C883   1.395       .  A
C882        H895   1.081       .  S
C883        C884   1.402       .  A
C883        H896   1.083       .  S
C884        C885   1.407       .  A
C884        C887   1.482       .  S
C885        C886   1.395       .  A
C885        H897   1.080       .  S
C886        H898   1.081       .  S
C887        C888   1.346       .  D
C887        H899   1.086       .  S
C888        C889   1.478       .  S
C888        H900   1.083       .  S
C889        C890   1.401       .  A
C889        C894   1.405       .  A
C890        C891   1.395       .  A
C890        H901   1.083       .  S
C891        C892   1.406       .  A
C891        H902   1.081       .  S
C892        C893   1.406       .  A
C893        C894   1.395       .  A
C893        H903   1.081       .  S
C894        H904   1.083       .  S
C905        C906   1.406       .  A
C905        C910   1.405       .  A
C906        C907   1.395   1_556  A
C906        H919   1.081       .  S
C907        C908   1.403       .  A
C907        H920   1.083       .  S
C908        C909   1.409       .  A
C908        C911   1.487       .  S
C909        C910   1.395   1_554  A
C909        H921   1.080       .  S
C910        H922   1.081       .  S
C911        C912   1.346   1_455  D
C911        H923   1.084       .  S
C912        C913   1.486       .  S
C912        H924   1.082       .  S
C913        C914   1.403       .  A
C913        C918   1.410       .  A
C914        C915   1.395   1_554  A
C914        H925   1.084       .  S
C915        C916   1.405       .  A
C915        H926   1.081       .  S
C916        C917   1.404       .  A
C917        C918   1.396   1_556  A
C917        H927   1.082       .  S
C918        H928   1.079       .  S
C929        C930   1.411       .  A
C929        C934   1.418       .  A
C930        C931   1.406       .  A
C930        H943   1.083       .  S
C931        C932   1.409       .  A
C931        H944   1.083       .  S
C932        C933   1.408       .  A
C932        C935   1.509       .  S
C933        C934   1.404       .  A
C933        H945   1.079       .  S
C934        H946   1.079       .  S
C935        C936   1.360       .  D
C935        H947   1.083       .  S
C936        C937   1.508       .  S
C936        H948   1.082       .  S
C937        C938   1.409       .  A
C937        C942   1.407       .  A
C938        C939   1.406   1_556  A
C938        H949   1.083       .  S
C939        C940   1.410   1_554  A
C939        H950   1.083       .  S
C940        C941   1.419       .  A
C941        C942   1.404       .  A
C941        H951   1.080       .  S
C942        H952   1.080       .  S
C953        C954   1.411       .  A
C953        C958   1.417       .  A
C954        C955   1.405       .  A
C954        H967   1.083       .  S
C955        C956   1.408       .  A
C955        H968   1.084       .  S
C956        C957   1.408       .  A
C956        C959   1.508       .  S
C957        C958   1.405       .  A
C957        H969   1.080       .  S
C958        H970   1.080       .  S
C959        C960   1.359       .  D
C959        H971   1.084       .  S
C960        C961   1.508       .  S
C960        H972   1.084       .  S
C961        C962   1.409       .  A
C961        C966   1.406       .  A
C962        C963   1.408       .  A
C962        H973   1.084       .  S
C963        C964   1.411       .  A
C963        H974   1.083       .  S
C964        C965   1.419       .  A
C965        C966   1.403       .  A
C965        H975   1.080       .  S
C966        H976   1.080       .  S
