geometry optimzed in LAMMPS
_audit_creation_date              2020-11-30 
_audit_creation_method            'lammps2cif' 
_symmetry_space_group_name_H-M    'P1' 
_symmetry_Int_Tables_number       1 
_symmetry_cell_setting            triclinic 
loop_ 
_symmetry_equiv_pos_as_xyz 
  x,y,z 
_cell_length_a                    45.14118131 
_cell_length_b                    45.05297952427109 
_cell_length_c                    45.06665702587021 
_cell_angle_alpha                 89.93158624704182 
_cell_angle_beta                  90.02525634604777 
_cell_angle_gamma                 89.9501761065349 
loop_ 
_atom_site_label 
_atom_site_type_symbol 
_atom_site_fract_x 
_atom_site_fract_y 
_atom_site_fract_z 
_atom_site_charge 
C1          C  0.00030283  0.24978982  0.20886753     0.79900
N2          N  0.99356842  0.27056709  0.22952733    -0.78400
C3          C  0.99404919  0.26413001  0.25872053     0.82400
N4          N  0.00117012  0.23651794  0.26754125    -0.78300
C5          C  0.00768906  0.21501029  0.24773937     0.82500
N6          N  0.00757580  0.22149679  0.21789375    -0.80000
O7          O  0.99364961  0.43964275  0.41321328    -0.86800
O8          O  0.00770941  0.44070659  0.58124248    -0.86900
O9          O  0.04917123  0.40693317  0.49185498    -0.88600
O10         O  0.95130985  0.40179901  0.50259026    -0.87400
O11         O  0.91461543  0.43697520  0.50348469    -0.86900
O12         O  0.08236497  0.44539863  0.49194699    -0.88300
O13         O  0.00680373  0.40454076  0.54517040    -0.86800
O14         O  0.99481783  0.40388246  0.44965008    -0.86400
Zr15       Zr  0.99900441  0.42836803  0.49742874     2.84300
O16         O  0.96969224  0.45686111  0.52978301    -1.08400
O17         O  0.02569398  0.45960429  0.46532714    -1.09100
C18         C  0.99340151  0.41252301  0.42237655     1.06300
C19         C  0.01030519  0.41363703  0.57207779     1.06300
C20         C  0.07590374  0.41750216  0.49084201     1.09300
C21         C  0.92370536  0.40980220  0.50407707     1.07000
H22         H  0.04357601  0.44901587  0.53612327     0.32600
O23         O  0.02926045  0.46035124  0.52505338    -1.29300
H24         H  0.95351192  0.44420148  0.45783841     0.32300
O25         O  0.96639252  0.45712171  0.46900945    -1.31000
O26         O  0.00390117  0.53744329  0.57916441    -0.86800
O27         O  0.98130192  0.53448278  0.41207101    -0.88300
O28         O  0.08330713  0.49650640  0.53900920    -0.86800
O29         O  0.91525630  0.48820323  0.55012354    -0.86900
O30         O  0.90988201  0.48661578  0.45464974    -0.86600
O31         O  0.07754568  0.49060489  0.44518845    -0.86400
O32         O  0.04092972  0.57581621  0.48933156    -0.86800
O33         O  0.94217574  0.57064830  0.49849054    -0.86200
O34         O  0.07784310  0.54067279  0.48953081    -0.87300
O35         O  0.90993702  0.53230063  0.50369193    -0.86500
O36         O  0.05128271  0.49166061  0.57796689    -0.86900
O37         O  0.04162805  0.49314643  0.40982528    -0.86600
O38         O  0.94251608  0.48378492  0.41593773    -0.86200
O39         O  0.95252984  0.48940048  0.58482201    -0.86600
O40         O  0.99421948  0.57277811  0.54379977    -0.86900
O41         O  0.97981417  0.57080648  0.44790318    -0.88300
Zr42       Zr  0.00030188  0.48881609  0.55725135     2.83100
Zr43       Zr  0.99317077  0.48802020  0.43644369     2.83500
Zr44       Zr  0.05495165  0.49201367  0.49334683     2.84100
Zr45       Zr  0.93744886  0.48590533  0.50106422     2.83400
Zr46       Zr  0.99289632  0.54915832  0.49565438     2.84200
O47         O  0.96371775  0.51631456  0.46850846    -1.08800
O48         O  0.02564047  0.52071213  0.52469660    -1.08300
C49         C  0.99994094  0.56440507  0.57053936     1.06300
C50         C  0.97612203  0.56107129  0.42122637     1.08900
C51         C  0.07777195  0.49463433  0.56700048     1.06500
C52         C  0.92475501  0.48971883  0.57707657     1.06800
C53         C  0.91586434  0.48436833  0.42674922     1.06400
C54         C  0.06931580  0.49278961  0.41806382     1.06000
C55         C  0.06860411  0.56770311  0.48804574     1.06400
C56         C  0.91550843  0.56025490  0.50167326     1.05900
H57         H  0.03354147  0.53347282  0.45059083     0.32600
O58         O  0.02276897  0.52062933  0.46400046    -1.29900
H59         H  0.95547921  0.52962925  0.54154707     0.32600
O60         O  0.96760255  0.51763958  0.52857103    -1.31300
C61         C  0.99199832  0.73533256  0.77119391     0.79900
N62         N  0.00060081  0.71400694  0.75198800    -0.78400
C63         C  0.00822411  0.72091682  0.72403995     0.82400
N64         N  0.00714646  0.74927452  0.71483944    -0.78300
C65         C  0.99853672  0.77114330  0.73335095     0.82500
N66         N  0.99040578  0.76436502  0.76193681    -0.80000
C67         C  0.00971491  0.26935683  0.74791249     0.79900
N68         N  0.03433231  0.28014791  0.73462884    -0.78400
C69         C  0.04782824  0.26559255  0.71215116     0.82400
N70         N  0.03610821  0.23956906  0.70301598    -0.78300
C71         C  0.01159445  0.22799989  0.71592102     0.82500
N72         N  0.99777286  0.24317869  0.73828826    -0.80000
C73         C  0.97845887  0.70583155  0.23477868     0.79900
N74         N  0.99149196  0.73024344  0.24737480    -0.78400
C75         C  0.98033572  0.74130058  0.27339130     0.82400
N76         N  0.95713725  0.72739125  0.28642219    -0.78300
C77         C  0.94433926  0.70303063  0.27445675     0.82500
N78         N  0.95543023  0.69246462  0.24868561    -0.80000
O79         O  0.00405084  0.03585904  0.40218982    -0.86800
O80         O  0.99420664  0.04236655  0.57090390    -0.86900
O81         O  0.95527467  0.07787177  0.47688177    -0.88600
O82         O  0.05015495  0.07210412  0.49519077    -0.87400
O83         O  0.08548107  0.03576625  0.49257861    -0.86900
O84         O  0.91806298  0.04305923  0.47533611    -0.88300
O85         O  0.99619187  0.07758587  0.53424002    -0.86800
O86         O  0.00727590  0.07379358  0.43602324    -0.86400
Zr87       Zr  0.00125658  0.05147065  0.48585762     2.84300
O88         O  0.02817195  0.02082532  0.51777973    -1.08400
O89         O  0.97244511  0.02118203  0.45482586    -1.09100
C90         C  0.00674461  0.06356167  0.40907878     1.06300
C91         C  0.99443521  0.06955448  0.56193564     1.06300
C92         C  0.92811282  0.06983015  0.47321614     1.09300
C93         C  0.07723921  0.06292467  0.49600375     1.07000
H94         H  0.95428115  0.03733350  0.52541274     0.32600
O95         O  0.96722980  0.02428347  0.51450617    -1.29300
H96         H  0.04516094  0.03056726  0.44614084     0.32300
O97         O  0.03165984  0.01913035  0.45819436    -1.31000
O98         O  0.99424220  0.94764635  0.57401772    -0.86800
O99         O  0.00117689  0.93868548  0.40567626    -0.88300
O100        O  0.91040119  0.99345219  0.52953922    -0.86800
O101        O  0.07844107  0.99000062  0.54250346    -0.86900
O102        O  0.08556540  0.98556742  0.44087961    -0.86600
O103        O  0.91813617  0.99286809  0.43243677    -0.86400
O104        O  0.94774428  0.91025549  0.49297578    -0.86800
O105        O  0.04420202  0.90622354  0.49959290    -0.86200
O106        O  0.91406582  0.94623952  0.48146270    -0.87300
O107        O  0.08155507  0.94043474  0.49557505    -0.86500
O108        O  0.94412272  0.99107548  0.56765338    -0.86900
O109        O  0.95625989  0.98792634  0.39944078    -0.86600
O110        O  0.05040523  0.98702989  0.40471548    -0.86200
O111        O  0.04001348  0.99281680  0.57591693    -0.86600
O112        O  0.99078884  0.90985315  0.54080165    -0.86900
O113        O  0.99756429  0.90401892  0.44300662    -0.88300
Zr114      Zr  0.99452815  0.99405286  0.54695838     2.83100
Zr115      Zr  0.00219055  0.98831558  0.42806301     2.83500
Zr116      Zr  0.93900482  0.99377073  0.48303585     2.84100
Zr117      Zr  0.05922453  0.98897906  0.49034481     2.83400
Zr118      Zr  0.99693782  0.93126827  0.49060555     2.84200
O119        O  0.02982173  0.95820642  0.46039023    -1.08800
O120        O  0.96587828  0.96404114  0.51623790    -1.08300
C121        C  0.99152815  0.91996939  0.56772134     1.06300
C122        C  0.99924846  0.91167239  0.41527146     1.08900
C123        C  0.91731947  0.99127234  0.55736298     1.06500
C124        C  0.06776675  0.99104116  0.56938460     1.06800
C125        C  0.07762710  0.98567001  0.41293906     1.06400
C126        C  0.92845522  0.99030893  0.40569689     1.06000
C127        C  0.92122403  0.91925331  0.48761072     1.06400
C128        C  0.07175089  0.91407177  0.50058739     1.05900
H129        H  0.95772154  0.94817932  0.44466720     0.32600
O130        O  0.96964025  0.96069429  0.45725214    -1.29900
H131        H  0.03677390  0.95033477  0.53424033     0.32600
O132        O  0.02585712  0.96227721  0.52022991    -1.31300
C133        C  0.23910211  0.26838682  0.49735482     0.79900
N134        N  0.22076421  0.24622442  0.50596643    -0.78400
C135        C  0.23149834  0.21920550  0.51307070     0.82400
N136        N  0.26085672  0.21414086  0.51160796    -0.78300
C137        C  0.27977376  0.23566662  0.50277161     0.82500
N138        N  0.26894637  0.26308320  0.49504602    -0.80000
C139        C  0.72223918  0.22287484  0.49438688     0.79900
N140        N  0.73757621  0.20442313  0.47630877    -0.78400
C141        C  0.76588091  0.21009783  0.46864244     0.82400
N142        N  0.77881467  0.23513769  0.47865721    -0.78300
C143        C  0.76395368  0.25459894  0.49593520     0.82500
N144        N  0.73550223  0.24829689  0.50464410    -0.80000
C145        C  0.71710646  0.75154211  0.52846134     0.79900
N146        N  0.73769149  0.77276115  0.52357771    -0.78400
C147        C  0.76616847  0.76550368  0.51856231     0.82400
N148        N  0.77462330  0.73685477  0.51835206    -0.78300
C149        C  0.75476626  0.71490856  0.52306990     0.82500
N150        N  0.72542296  0.72204949  0.52794486    -0.80000
C151        C  0.22782668  0.72262973  0.49062812     0.79900
N152        N  0.21390552  0.74150287  0.50944231    -0.78400
C153        C  0.22718141  0.76632165  0.51960640     0.82400
N154        N  0.25537497  0.77177393  0.51166386    -0.78300
C155        C  0.26998818  0.75397419  0.49246632     0.82500
N156        N  0.25599443  0.72935305  0.48110435    -0.80000
C157        C  0.72175627  0.98534000  0.22870840     0.79900
N158        N  0.75136188  0.99139852  0.23234008    -0.78400
C159        C  0.76299759  0.99176682  0.26049312     0.82400
N160        N  0.74540430  0.98591310  0.28402080    -0.78300
C161        C  0.71661273  0.97918662  0.28035080     0.82500
N162        N  0.70501538  0.97916993  0.25283639    -0.80000
O163        O  0.45363183  0.07886452  0.48936470    -0.86800
O164        O  0.44011343  0.90994982  0.49475864    -0.86900
O165        O  0.42357475  0.99381325  0.43606805    -0.88600
O166        O  0.40001411  0.00525235  0.53009925    -0.87400
O167        O  0.42703229  0.00321568  0.57340945    -0.86900
O168        O  0.46620177  0.98474688  0.40982708    -0.88300
O169        O  0.40676728  0.94736932  0.48535403    -0.86800
O170        O  0.41610883  0.04672127  0.47932387    -0.86400
Zr171      Zr  0.43408445  0.99524724  0.48898737     2.84300
O172        O  0.45369727  0.96482856  0.52686674    -1.08400
O173        O  0.47282052  0.02025082  0.46490796    -1.09100
C174        C  0.42668499  0.07345520  0.48184744     1.06300
C175        C  0.41404785  0.91948422  0.48768874     1.06300
C176        C  0.43806387  0.98870152  0.41187187     1.09300
C177        C  0.40296119  0.00759056  0.55857260     1.07000
H178        H  0.45818453  0.94901896  0.45437338     0.32600
O179        O  0.46822381  0.96161444  0.46844836    -1.29300
H180        H  0.44649797  0.03932418  0.53169602     0.32300
O181        O  0.45963600  0.02469978  0.52325712    -1.31000
O182        O  0.53449719  0.90444143  0.51435329    -0.86800
O183        O  0.54524526  0.07307336  0.50750686    -0.88300
O184        O  0.50879683  0.93602288  0.42370814    -0.86800
O185        O  0.47236546  0.94661439  0.58748424    -0.86900
O186        O  0.47931915  0.04530177  0.58305740    -0.86600
O187        O  0.51193391  0.03406090  0.41619538    -0.86400
O188        O  0.58593787  0.97911678  0.47673546    -0.86800
O189        O  0.56144550  0.98806908  0.57031188    -0.86200
O190        O  0.55851131  0.97771143  0.43365854    -0.87300
O191        O  0.51880905  0.99521489  0.59687922    -0.86500
O192        O  0.49586498  0.90341312  0.46043387    -0.86900
O193        O  0.50478191  0.07163253  0.44977440    -0.86600
O194        O  0.49225729  0.07687370  0.54542433    -0.86200
O195        O  0.47776169  0.90904545  0.55343873    -0.86600
O196        O  0.57156756  0.93720182  0.52519709    -0.86900
O197        O  0.57736272  0.03687236  0.52256943    -0.88300
Zr198      Zr  0.48829259  0.93182440  0.50578061     2.83100
Zr199      Zr  0.49781678  0.04991041  0.49900048     2.83500
Zr200      Zr  0.50683801  0.98681753  0.44440970     2.84100
Zr201      Zr  0.47882236  0.99483187  0.56132415     2.83400
Zr202      Zr  0.55156231  0.98789290  0.51725091     2.84200
O203        O  0.51709307  0.02081120  0.53736037    -1.08800
O204        O  0.52650224  0.95802136  0.48277544    -1.08300
C205        C  0.56152521  0.91039475  0.52176557     1.06300
C206        C  0.57056204  0.06456807  0.51750702     1.08900
C207        C  0.50356230  0.90943456  0.43352045     1.06500
C208        C  0.47351134  0.91876876  0.57997496     1.06800
C209        C  0.48521514  0.07152661  0.57265096     1.06400
C210        C  0.50898117  0.06191302  0.42313776     1.06000
C211        C  0.58279841  0.97540567  0.44852522     1.06400
C212        C  0.54696838  0.99151240  0.59481440     1.05900
H213        H  0.54798059  0.02792881  0.46831911     0.32600
O214        O  0.53238356  0.01716390  0.47829045    -1.29900
H215        H  0.52130809  0.94911082  0.55570072     0.32600
O216        O  0.51298242  0.96160884  0.54042717    -1.31300
C217        C  0.26382968  0.01818338  0.75614078     0.79900
N218        N  0.23780534  0.00465955  0.74829889    -0.78400
C219        C  0.22370977  0.01345935  0.72285817     0.82400
N220        N  0.23659140  0.03410325  0.70518944    -0.78300
C221        C  0.26266283  0.04703587  0.71229504     0.82500
N222        N  0.27596606  0.03870289  0.73785524    -0.80000
C223        C  0.74047406  0.97125837  0.76961218     0.79900
N224        N  0.71462093  0.96069148  0.75903943    -0.78400
C225        C  0.71063387  0.95561336  0.73003115     0.82400
N226        N  0.73360731  0.95957453  0.71116579    -0.78300
C227        C  0.76023087  0.97018768  0.72055399     0.82500
N228        N  0.76335920  0.97702400  0.75024372    -0.80000
C229        C  0.26603118  0.00287854  0.20753509     0.79900
N230        N  0.28963858  0.00263428  0.22588621    -0.78400
C231        C  0.28622685  0.00002346  0.25535071     0.82400
N232        N  0.25890213  0.99755413  0.26718012    -0.78300
C233        C  0.23452815  0.99759371  0.24963139     0.82500
N234        N  0.23789236  0.00010795  0.21924449    -0.80000
O235        O  0.58192254  0.99974976  0.03545506    -0.86800
O236        O  0.41371350  0.99070321  0.02098986    -0.86900
O237        O  0.49456202  0.04301444  0.06435701    -0.88600
O238        O  0.49623121  0.94775687  0.06587456    -0.87400
O239        O  0.50490635  0.91106127  0.03144739    -0.86900
O240        O  0.49386352  0.07849744  0.02774534    -0.88300
O241        O  0.44539477  0.99562833  0.06030169    -0.86800
O242        O  0.54391340  0.99712757  0.06910955    -0.86400
Zr243      Zr  0.49690426  0.99486539  0.04086666     2.84300
O244        O  0.47231055  0.96228371  0.00867721    -1.08400
O245        O  0.52800549  0.02609638  0.01351560    -1.09100
C246        C  0.57181929  0.99842995  0.06219292     1.06300
C247        C  0.41895319  0.99372639  0.04898106     1.06300
C248        C  0.49360327  0.07002622  0.05501912     1.09300
C249        C  0.50059477  0.92061367  0.05820145     1.07000
H250        H  0.45373672  0.03460064  0.01885573     0.32600
O251        O  0.46788407  0.02260252  0.00807265    -1.29300
H252        H  0.54348899  0.95464703  0.02760305     0.32300
O253        O  0.53120669  0.96597635  0.01410934    -1.31000
O254        O  0.42242191  0.98984254  0.92626807    -0.86800
O255        O  0.58933978  0.99776642  0.93974860    -0.88300
O256        O  0.44903477  0.07470727  0.97480607    -0.86800
O257        O  0.45943270  0.90605087  0.97975882    -0.86900
O258        O  0.55782474  0.91272377  0.98410110    -0.86600
O259        O  0.54660375  0.08058934  0.98434791    -0.86400
O260        O  0.50531524  0.04292787  0.89752292    -0.86800
O261        O  0.51651814  0.94617561  0.89754574    -0.86200
O262        O  0.50125728  0.07832774  0.93401565    -0.87300
O263        O  0.51643719  0.91027219  0.93401556    -0.86500
O264        O  0.41567644  0.03647859  0.97081718    -0.86900
O265        O  0.58362690  0.04597283  0.98582602    -0.86600
O266        O  0.58962169  0.95177474  0.98826680    -0.86200
O267        O  0.42224350  0.94052836  0.97529411    -0.86600
O268        O  0.46016085  0.99150078  0.89224821    -0.86900
O269        O  0.55740331  0.99899628  0.90036794    -0.88300
Zr270      Zr  0.44335272  0.99015927  0.97580338     2.83100
Zr271      Zr  0.56111033  0.99738690  0.98579369     2.83500
Zr272      Zr  0.49894904  0.05364486  0.98072883     2.84100
Zr273      Zr  0.50663326  0.93353327  0.98188435     2.83400
Zr274      Zr  0.50694957  0.99393470  0.92068937     2.84200
O275        O  0.53583574  0.96586198  0.95372750    -1.08800
O276        O  0.47341521  0.02207633  0.94834213    -1.08300
C277        C  0.43234279  0.99053637  0.89945665     1.06300
C278        C  0.58381328  0.99921740  0.91167963     1.08900
C279        C  0.42248308  0.06430895  0.97147049     1.06500
C280        C  0.43175867  0.91360173  0.97767932     1.06800
C281        C  0.58437277  0.92375313  0.98641725     1.06400
C282        C  0.57432993  0.07297128  0.98552942     1.06000
C283        C  0.50351418  0.06996884  0.90692766     1.06400
C284        C  0.51981318  0.91932228  0.90699622     1.05900
H285        H  0.54509256  0.03856217  0.94184742     0.32600
O286        O  0.53255127  0.02559774  0.95300233    -1.29900
H287        H  0.46675255  0.94817311  0.93543954     0.32600
O288        O  0.47714519  0.96134307  0.94857338    -1.31300
C289        C  0.50521303  0.22556720  0.26813105     0.79900
N290        N  0.50691950  0.25599612  0.26430375    -0.78400
C291        C  0.50864221  0.26731351  0.23577131     0.82400
N292        N  0.50835908  0.24862618  0.21236972    -0.78300
C293        C  0.50665906  0.21916771  0.21628655     0.82500
N294        N  0.50544575  0.20793046  0.24387311    -0.80000
C295        C  0.50929817  0.72072095  0.23558884     0.79900
N296        N  0.51350684  0.72806162  0.26488360    -0.78400
C297        C  0.51627015  0.75747829  0.27251159     0.82400
N298        N  0.51488150  0.77855087  0.25106852    -0.78300
C299        C  0.51036334  0.77130600  0.22240624     0.82500
N300        N  0.50740875  0.74248378  0.21493758    -0.80000
C301        C  0.50834327  0.72053569  0.76300134     0.79900
N302        N  0.53090100  0.73556672  0.77570850    -0.78400
C303        C  0.53919123  0.76266884  0.76621358     0.82400
N304        N  0.52427286  0.77481935  0.74305574    -0.78300
C305        C  0.50190208  0.76005029  0.72931458     0.82500
N306        N  0.49322772  0.73294645  0.73981208    -0.80000
C307        C  0.49824113  0.24482081  0.70884803     0.79900
N308        N  0.50501292  0.22466715  0.72995082    -0.78400
C309        C  0.50642169  0.23219953  0.75875497     0.82400
N310        N  0.50216625  0.26065588  0.76659180    -0.78300
C311        C  0.49681015  0.28178154  0.74597827     0.82500
N312        N  0.49407017  0.27402198  0.71659950    -0.80000
O313        O  0.01609594  0.40272686  0.02469147    -0.86800
O314        O  0.00430798  0.56908084  0.04544787    -0.86900
O315        O  0.06069365  0.48397373  0.06493458    -0.88600
O316        O  0.96427783  0.48056763  0.07337440    -0.87400
O317        O  0.92561029  0.48135923  0.04013597    -0.86900
O318        O  0.09322997  0.49307342  0.02676670    -0.88300
O319        O  0.00946990  0.52932562  0.07690990    -0.86800
O320        O  0.01223814  0.43310844  0.06494366    -0.86400
Zr321      Zr  0.01037566  0.48448193  0.04595664     2.84300
O322        O  0.97643917  0.51598327  0.02224773    -1.08400
O323        O  0.04033143  0.46100036  0.01055185    -1.09100
C324        C  0.01460771  0.40705536  0.05300016     1.06300
C325        C  0.00705226  0.55747715  0.07155976     1.06300
C326        C  0.08685209  0.48817668  0.05415675     1.09300
C327        C  0.93654610  0.47985734  0.06650573     1.07000
H328        H  0.04864629  0.53150997  0.03070783     0.32600
O329        O  0.03615675  0.51986431  0.01776209    -1.29300
H330        H  0.96912723  0.44220901  0.02621443     0.32300
O331        O  0.97972767  0.45679698  0.01466863    -1.31000
O332        O  0.99869841  0.58142579  0.94954042    -0.86800
O333        O  0.00485876  0.41410176  0.92916279    -0.88300
O334        O  0.08622280  0.54635538  0.98737527    -0.86800
O335        O  0.91930684  0.53673827  0.99973332    -0.86900
O336        O  0.92533661  0.43714142  0.98513178    -0.86600
O337        O  0.09323237  0.45041480  0.97368577    -0.86400
O338        O  0.04424932  0.51100951  0.90016255    -0.86800
O339        O  0.95197507  0.49055166  0.90685627    -0.86200
O340        O  0.08378865  0.50780455  0.93181499    -0.87300
O341        O  0.91816039  0.49009321  0.94434374    -0.86500
O342        O  0.04825265  0.57954268  0.99428399    -0.86900
O343        O  0.05962792  0.41213172  0.97357316    -0.86600
O344        O  0.96392097  0.40462746  0.98103369    -0.86200
O345        O  0.95405318  0.57370579  0.00058626    -0.86600
O346        O  0.99351628  0.55045419  0.90953715    -0.86900
O347        O  0.00058332  0.45374929  0.89725258    -0.88300
Zr348      Zr  0.00225683  0.55120437  0.99425823     2.83100
Zr349      Zr  0.00991646  0.43280543  0.97975602     2.83500
Zr350      Zr  0.06516134  0.49643129  0.98143350     2.84100
Zr351      Zr  0.94546548  0.48841673  0.99093767     2.83400
Zr352      Zr  0.00026812  0.49918338  0.92766028     2.84200
O353        O  0.97568282  0.46420224  0.95659381    -1.08800
O354        O  0.03090341  0.52746451  0.95833960    -1.08300
C355        C  0.99495946  0.57657737  0.92155561     1.06300
C356        C  0.00152928  0.42558042  0.90308553     1.08900
C357        C  0.07593477  0.57288768  0.99151470     1.06500
C358        C  0.92711444  0.56450435  0.00233568     1.06800
C359        C  0.93596470  0.41044439  0.98193357     1.06400
C360        C  0.08624861  0.42259767  0.97213651     1.06000
C361        C  0.07195270  0.51322803  0.90623847     1.06400
C362        C  0.92543027  0.48804928  0.91674057     1.05900
H363        H  0.04700629  0.45798577  0.93542563     0.32600
O364        O  0.03510121  0.46774106  0.95032558    -1.29900
H365        H  0.95684989  0.53680059  0.95280946     0.32600
O366        O  0.97088858  0.52390766  0.96270814    -1.31300
C367        C  0.76171876  0.47187678  0.26946624     0.79900
N368        N  0.78334322  0.46732893  0.24913526    -0.78400
C369        C  0.77818922  0.47125796  0.21990705     0.82400
N370        N  0.75104773  0.47947270  0.21074850    -0.78300
C371        C  0.72872547  0.48356643  0.23027160     0.82500
N372        N  0.73393380  0.48018469  0.26011741    -0.80000
C373        C  0.27889482  0.48334690  0.23922635     0.79900
N374        N  0.26644794  0.48828651  0.26662325    -0.78400
C375        C  0.23606333  0.48997313  0.26878993     0.82400
N376        N  0.21922433  0.48713793  0.24411844    -0.78300
C377        C  0.23183285  0.48228335  0.21752060     0.82500
N378        N  0.26134629  0.48028131  0.21526587    -0.80000
C379        C  0.27798839  0.51099277  0.75381650     0.79900
N380        N  0.25817740  0.52578470  0.77081093    -0.78400
C381        C  0.23036377  0.53095546  0.76121581     0.82400
N382        N  0.22236175  0.52214165  0.73389273    -0.78300
C383        C  0.24157396  0.50789564  0.71592112     0.82500
N384        N  0.26955155  0.50118456  0.72611818    -0.80000
C385        C  0.75759698  0.48264299  0.72294360     0.79900
N386        N  0.72827057  0.48888244  0.72835964    -0.78400
C387        C  0.71628160  0.48139684  0.75543036     0.82400
N388        N  0.73394490  0.46964059  0.77679046    -0.78300
C389        C  0.76287021  0.46421051  0.77149790     0.82500
N390        N  0.77430130  0.47048879  0.74467250    -0.80000
C391        C  0.24090846  0.26655534  0.97941705     0.79900
N392        N  0.25091841  0.24031959  0.96803363    -0.78400
C393        C  0.27349432  0.22579752  0.98219291     0.82400
N394        N  0.28644597  0.23821463  0.00637017    -0.78300
C395        C  0.27672779  0.26431758  0.01762447     0.82500
N396        N  0.25394609  0.27798584  0.00384136    -0.80000
O397        O  0.50601210  0.44395055  0.08093756    -0.86800
O398        O  0.49717312  0.44756526  0.91222806    -0.86900
O399        O  0.45739548  0.40298087  0.00273680    -0.88600
O400        O  0.55158179  0.41196633  0.98804128    -0.87400
O401        O  0.58374436  0.45156397  0.98545133    -0.86900
O402        O  0.41851244  0.43604484  0.00603713    -0.88300
O403        O  0.50436703  0.40959752  0.94471620    -0.86800
O404        O  0.51111275  0.40777378  0.04569747    -0.86400
Zr405      Zr  0.50258716  0.43157579  0.99615670     2.84300
O406        O  0.52773160  0.46557252  0.96598496    -1.08400
O407        O  0.47167090  0.45944351  0.02745002    -1.09100
C408        C  0.51068162  0.41676019  0.07319113     1.06300
C409        C  0.50217166  0.42014979  0.91778524     1.06300
C410        C  0.42990077  0.40977655  0.00675175     1.09300
C411        C  0.57714010  0.42373860  0.98351280     1.07000
H412        H  0.45637737  0.44583989  0.95682116     0.32600
O413        O  0.46781312  0.45932594  0.96890113    -1.29300
H414        H  0.54571369  0.45306774  0.03643689     0.32300
O415        O  0.53145408  0.46424417  0.02497535    -1.31000
O416        O  0.49112357  0.54140722  0.91523196    -0.86800
O417        O  0.49864001  0.53955441  0.08191334    -0.88300
O418        O  0.41016307  0.48010636  0.95214894    -0.86800
O419        O  0.57818769  0.50254243  0.94375148    -0.86900
O420        O  0.58375124  0.49891821  0.04242120    -0.86600
O421        O  0.41541596  0.48423122  0.05166115    -0.86400
O422        O  0.44106468  0.57205372  0.99344153    -0.86800
O423        O  0.53658446  0.58052194  0.99736226    -0.86200
O424        O  0.40832117  0.53289047  0.99231789    -0.87300
O425        O  0.57579664  0.54798702  0.99355103    -0.86500
O426        O  0.44489343  0.48784934  0.91590332    -0.86900
O427        O  0.45423915  0.48855246  0.08386621    -0.86600
O428        O  0.54870647  0.49554784  0.07902302    -0.86200
O429        O  0.53992276  0.49700334  0.91109427    -0.86600
O430        O  0.48729145  0.57716932  0.95080021    -0.86900
O431        O  0.48872852  0.57622157  0.04858067    -0.88300
Zr432      Zr  0.49356681  0.49328016  0.93895996     2.83100
Zr433      Zr  0.50011084  0.49175022  0.05626969     2.83500
Zr434      Zr  0.43624576  0.48656449  0.00045964     2.84100
Zr435      Zr  0.55693327  0.49769898  0.99432862     2.83400
Zr436      Zr  0.49079487  0.55231098  0.99922705     2.84200
O437        O  0.52584433  0.52486146  0.02615588    -1.08800
O438        O  0.46242306  0.51978099  0.97037156    -1.08300
C439        C  0.48860770  0.56862760  0.92341108     1.06300
C440        C  0.49314774  0.56695748  0.07547162     1.08900
C441        C  0.41813324  0.48226739  0.92447924     1.06500
C442        C  0.56766326  0.50089405  0.91697097     1.06800
C443        C  0.57574029  0.49797932  0.07011702     1.06400
C444        C  0.42645612  0.48530933  0.07835041     1.06000
C445        C  0.41513751  0.56071316  0.98949596     1.06400
C446        C  0.56435305  0.57418964  0.99483304     1.05900
H447        H  0.45182800  0.53037994  0.04282511     0.32600
O448        O  0.46464634  0.51928147  0.02968514    -1.29900
H449        H  0.53265329  0.53906809  0.95456524     0.32600
O450        O  0.52219616  0.52553177  0.96748977    -1.31300
C451        C  0.74565046  0.77263674  0.99693480     0.79900
N452        N  0.72280299  0.75330076  0.99551872    -0.78400
C453        C  0.72717264  0.72377352  0.99389595     0.82400
N454        N  0.75521160  0.71336496  0.99458241    -0.78300
C455        C  0.77877100  0.73172996  0.99760989     0.82500
N456        N  0.77422537  0.76197347  0.99843740    -0.80000
C457        C  0.27468017  0.75817954  0.95942539     0.79900
N458        N  0.28958772  0.74276738  0.93841162    -0.78400
C459        C  0.28084637  0.71548684  0.92985152     0.82400
N460        N  0.25631305  0.70395611  0.94251321    -0.78300
C461        C  0.24125557  0.71806441  0.96432681     0.82500
N462        N  0.25081499  0.74547604  0.97338180    -0.80000
C463        C  0.77640277  0.25713750  0.95638199     0.79900
N464        N  0.76580679  0.22989248  0.96517671    -0.78400
C465        C  0.73588338  0.22456257  0.96314048     0.82400
N466        N  0.71763961  0.24620684  0.95325448    -0.78300
C467        C  0.72785546  0.27281935  0.94430424     0.82500
N468        N  0.75715009  0.27787258  0.94631542    -0.80000
C469        C  0.70677882  0.29726963  0.93682031     0.01100
C470        C  0.71626473  0.32752605  0.93668671     0.03900
C471        C  0.69527254  0.35029229  0.93975534    -0.12200
C472        C  0.66514534  0.34327082  0.94142567     0.23200
C473        C  0.65529921  0.31420794  0.93660124    -0.12700
C474        C  0.67592838  0.29112998  0.93387851     0.04600
C475        C  0.64401858  0.36546372  0.95217131     0.27000
C476        C  0.63781034  0.36661806  0.98278866    -0.13400
C477        C  0.61570673  0.38571580  0.99327841     0.05100
C478        C  0.60029097  0.40381122  0.97313445    -0.09400
C479        C  0.60583630  0.40187645  0.94242229     0.05900
C480        C  0.62837156  0.38329848  0.93197268    -0.13800
Br481      Br  0.61320048  0.30601660  0.93640858    -0.05800
Br482      Br  0.75729829  0.33960920  0.93290636    -0.00200
Br483      Br  0.60514986  0.38563987  0.03472480     0.00200
Br484      Br  0.63746509  0.38170959  0.89015321    -0.04200
Br485      Br  0.66048986  0.25173957  0.92616320     0.00300
Br486      Br  0.70752411  0.39117719  0.94427635    -0.03500
Br487      Br  0.65919776  0.34141484  0.01012423    -0.04300
Br488      Br  0.58055162  0.42214703  0.91447366    -0.00400
C489        C  0.39275642  0.58103756  0.97680701     0.01100
C490        C  0.37728884  0.60150865  0.99454237     0.03900
C491        C  0.35895223  0.62307009  0.98105032    -0.12200
C492        C  0.35708655  0.62482744  0.94975719     0.23200
C493        C  0.37346201  0.60514168  0.93214655    -0.12700
C494        C  0.39064895  0.58301959  0.94564457     0.04600
C495        C  0.33930281  0.64829527  0.93514006     0.27000
C496        C  0.31124330  0.64174338  0.92304286    -0.13400
C497        C  0.29343141  0.66495391  0.91221447     0.05100
C498        C  0.30255897  0.69458312  0.91638966    -0.09400
C499        C  0.33306565  0.69996957  0.92080162     0.05900
C500        C  0.35124707  0.67692062  0.93134840    -0.13800
Br501      Br  0.37414785  0.61016224  0.88951389    -0.05800
Br502      Br  0.38255690  0.60079386  0.03696559    -0.00200
Br503      Br  0.25560164  0.65678934  0.89400537     0.00200
Br504      Br  0.39205052  0.68457135  0.94143324    -0.04200
Br505      Br  0.41302678  0.55669177  0.92111535     0.00300
Br506      Br  0.33759350  0.65105789  0.00527943    -0.03500
Br507      Br  0.29641655  0.60162184  0.92316968    -0.04300
Br508      Br  0.34990089  0.73840185  0.91243089    -0.00400
C509        C  0.58491481  0.59904307  0.99274079     0.01100
C510        C  0.60106706  0.60345605  0.96637402     0.03900
C511        C  0.62249305  0.62588314  0.96507546    -0.12200
C512        C  0.62689746  0.64445031  0.98975331     0.23200
C513        C  0.60961332  0.64106174  0.01551676    -0.12700
C514        C  0.58925716  0.61769154  0.01735753     0.04600
C515        C  0.65233170  0.66475417  0.99017037     0.27000
C516        C  0.67899825  0.65498648  0.00281749    -0.13400
C517        C  0.70325003  0.67426824  0.00469438     0.05100
C518        C  0.70148481  0.70319153  0.99209947    -0.09400
C519        C  0.67461216  0.71230334  0.97815678     0.05900
C520        C  0.64998117  0.69326577  0.97796083    -0.13800
Br521      Br  0.61493224  0.66763266  0.04865406    -0.05800
Br522      Br  0.59418567  0.57853084  0.93223026    -0.00200
Br523      Br  0.73748512  0.66027384  0.02643149     0.00200
Br524      Br  0.61278431  0.70579697  0.96071370    -0.04200
Br525      Br  0.57005317  0.60906631  0.05457249     0.00300
Br526      Br  0.64693755  0.63026780  0.93021857    -0.03500
Br527      Br  0.68208647  0.61465205  0.01744442    -0.04300
Br528      Br  0.67075894  0.74983910  0.95753725    -0.00400
C529        C  0.29595655  0.28223456  0.03765573     0.01100
C530        C  0.28893645  0.31260871  0.04159425     0.03900
C531        C  0.31146352  0.33388412  0.03922460    -0.12200
C532        C  0.34108144  0.32450678  0.03694708     0.23200
C533        C  0.34830931  0.29438616  0.04090320    -0.12700
C534        C  0.32556783  0.27320284  0.04237686     0.04600
C535        C  0.36446617  0.34591453  0.02924665     0.27000
C536        C  0.37251426  0.34986915  0.99925389    -0.13400
C537        C  0.39521306  0.36979767  0.99180162     0.05100
C538        C  0.40952132  0.38582369  0.01432501    -0.09400
C539        C  0.40200511  0.38132447  0.04432158     0.05900
C540        C  0.37913182  0.36167297  0.05177520    -0.13800
Br541      Br  0.38924739  0.28206669  0.04125502    -0.05800
Br542      Br  0.24868437  0.32521530  0.04906129    -0.00200
Br543      Br  0.40669920  0.37547347  0.95094139     0.00200
Br544      Br  0.36713148  0.35699983  0.09260348    -0.04200
Br545      Br  0.33511453  0.23230503  0.05072799     0.00300
Br546      Br  0.30157394  0.37540624  0.03572743    -0.03500
Br547      Br  0.35177522  0.32869229  0.96842746    -0.04300
Br548      Br  0.42330202  0.40194038  0.07516288    -0.00400
C549        C  0.68586519  0.48968291  0.76511427     0.01100
C550        C  0.68182120  0.51740629  0.77903284     0.03900
C551        C  0.66079233  0.52070769  0.80204844    -0.12200
C552        C  0.64222055  0.49678925  0.81010496     0.23200
C553        C  0.64363617  0.47027371  0.79342319    -0.12700
C554        C  0.66548464  0.46674195  0.77117825     0.04600
C555        C  0.62334053  0.49870261  0.83757190     0.27000
C556        C  0.63387474  0.48703475  0.86466371    -0.13400
C557        C  0.61722815  0.49006543  0.89114529     0.05100
C558        C  0.58841937  0.50286401  0.89055638    -0.09400
C559        C  0.57862614  0.51577957  0.86336070     0.05900
C560        C  0.59594994  0.51368129  0.83723981    -0.13800
Br561      Br  0.61743448  0.43785797  0.80295209    -0.05800
Br562      Br  0.70674925  0.55024753  0.76782939    -0.00200
Br563      Br  0.63526159  0.47728089  0.92787511     0.00200
Br564      Br  0.58224692  0.53141958  0.80067145    -0.04200
Br565      Br  0.66917448  0.42972673  0.75011829     0.00300
Br566      Br  0.65971257  0.55692887  0.82477611    -0.03500
Br567      Br  0.67142036  0.46642170  0.86524050    -0.04300
Br568      Br  0.54262640  0.53889659  0.86171004    -0.00400
C569        C  0.39561922  0.47889852  0.89987980     0.01100
C570        C  0.36744590  0.49278423  0.90084207     0.03900
C571        C  0.35011770  0.49542197  0.87465797    -0.12200
C572        C  0.36063467  0.48440947  0.84716534     0.23200
C573        C  0.38750646  0.46845624  0.84679649    -0.12700
C574        C  0.40403444  0.46462385  0.87314337     0.04600
C575        C  0.34352200  0.48980627  0.81887561     0.27000
C576        C  0.32721148  0.46677817  0.80512727    -0.13400
C577        C  0.30882385  0.47282530  0.78031660     0.05100
C578        C  0.30586345  0.50208323  0.76935272    -0.09400
C579        C  0.32360932  0.52464675  0.78199692     0.05900
C580        C  0.34257853  0.51850232  0.80622961    -0.13800
Br581      Br  0.40263282  0.45291515  0.80985225    -0.05800
Br582      Br  0.35209009  0.50833937  0.93763881    -0.00200
Br583      Br  0.28515586  0.44150467  0.76341528     0.00200
Br584      Br  0.36624741  0.54989898  0.82317406    -0.04200
Br585      Br  0.43671312  0.43716867  0.87305423     0.00300
Br586      Br  0.31199230  0.51478991  0.87624641    -0.03500
Br587      Br  0.32807926  0.42730928  0.82177583    -0.04300
Br588      Br  0.31998623  0.56481092  0.76746881    -0.00400
C589        C  0.40660904  0.48300680  0.10533184     0.01100
C590        C  0.41839060  0.47260068  0.13292548     0.03900
C591        C  0.40173985  0.47472017  0.15933165    -0.12200
C592        C  0.37186136  0.48330849  0.15846776     0.23200
C593        C  0.35917738  0.49153181  0.13100723    -0.12700
C594        C  0.37664941  0.49276330  0.10490157     0.04600
C595        C  0.35348807  0.48265273  0.18622143     0.27000
C596        C  0.34221214  0.45549675  0.19703028    -0.13400
C597        C  0.32143498  0.45531151  0.22042255     0.05100
C598        C  0.31093243  0.48220105  0.23258739    -0.09400
C599        C  0.32480840  0.50895069  0.22416674     0.05900
C600        C  0.34609059  0.50919576  0.20114019    -0.13800
Br601      Br  0.31751521  0.50102785  0.12927992    -0.05800
Br602      Br  0.45648038  0.45293009  0.13562428    -0.00200
Br603      Br  0.30321358  0.41853003  0.23262762     0.00200
Br604      Br  0.36356158  0.54611501  0.18847391    -0.04200
Br605      Br  0.35919290  0.50960570  0.06953129     0.00300
Br606      Br  0.42006521  0.46656932  0.19724560    -0.03500
Br607      Br  0.35290639  0.41874775  0.17783894    -0.04300
Br608      Br  0.31121508  0.54571430  0.24122031    -0.00400
C609        C  0.59867535  0.49939634  0.09422179     0.01100
C610        C  0.62437948  0.48135578  0.09348332     0.03900
C611        C  0.64368412  0.48016901  0.11823866    -0.12200
C612        C  0.63723926  0.49639987  0.14424567     0.23200
C613        C  0.61217072  0.51494908  0.14479101    -0.12700
C614        C  0.59331710  0.51684417  0.11989542     0.04600
C615        C  0.65768159  0.49542497  0.17041720     0.27000
C616        C  0.65637549  0.47189517  0.19115986    -0.13400
C617        C  0.67765474  0.46979909  0.21413122     0.05100
C618        C  0.69976100  0.49167352  0.21705497    -0.09400
C619        C  0.69895088  0.51676061  0.19821980     0.05900
C620        C  0.67858812  0.51826395  0.17456825    -0.13800
Br621      Br  0.60388172  0.53805814  0.17991868    -0.05800
Br622      Br  0.63284641  0.45713560  0.05929748    -0.00200
Br623      Br  0.67850570  0.43552247  0.23974531     0.00200
Br624      Br  0.68070466  0.55058605  0.14648428    -0.04200
Br625      Br  0.56099955  0.54487341  0.12092683     0.00300
Br626      Br  0.67935998  0.45658920  0.11652929    -0.03500
Br627      Br  0.62629149  0.44184269  0.18717776    -0.04300
Br628      Br  0.72752249  0.54815124  0.20366735    -0.00400
C629        C  0.90424479  0.58860659  0.00711112     0.01100
C630        C  0.87696297  0.58891781  0.99151744     0.03900
C631        C  0.85834842  0.61433725  0.99233329    -0.12200
C632        C  0.86698311  0.64020499  0.00784580     0.23200
C633        C  0.89355845  0.63960873  0.02423350    -0.12700
C634        C  0.91140178  0.61377540  0.02483570     0.04600
C635        C  0.84802297  0.66784686  0.00708247     0.27000
C636        C  0.84783529  0.68658109  0.98185360    -0.13400
C637        C  0.82728583  0.71035601  0.97963610     0.05100
C638        C  0.80779839  0.71672369  0.00327653    -0.09400
C639        C  0.81060101  0.70015954  0.02979307     0.05900
C640        C  0.82966625  0.67526592  0.03134305    -0.13800
Br641      Br  0.90617213  0.67490046  0.04498213    -0.05800
Br642      Br  0.86527132  0.55537612  0.96765163    -0.00200
Br643      Br  0.82442747  0.73306668  0.94355544     0.00200
Br644      Br  0.82885252  0.64996194  0.06588723    -0.04200
Br645      Br  0.94486711  0.61288659  0.05161901     0.00300
Br646      Br  0.82093370  0.61406552  0.97165972    -0.03500
Br647      Br  0.87507055  0.67879766  0.94987615    -0.04300
Br648      Br  0.78682805  0.71103189  0.06367857    -0.00400
C649        C  0.80791758  0.26704805  0.95863267     0.01100
C650        C  0.82161960  0.27055114  0.98657756     0.03900
C651        C  0.84503606  0.29122031  0.99022876    -0.12200
C652        C  0.85436870  0.30921539  0.96621737     0.23200
C653        C  0.84257156  0.30361962  0.93774763    -0.12700
C654        C  0.82009907  0.28218077  0.93392815     0.04600
C655        C  0.87547464  0.33471677  0.97100858     0.27000
C656        C  0.86580448  0.36104732  0.98494410    -0.13400
C657        C  0.88572050  0.38478397  0.99031266     0.05100
C658        C  0.91498181  0.38421033  0.97852092    -0.09400
C659        C  0.92408070  0.35782831  0.96329493     0.05900
C660        C  0.90494889  0.33303364  0.96101482    -0.13800
Br661      Br  0.85547382  0.32693386  0.90416159    -0.05800
Br662      Br  0.80663953  0.24910615  0.02038411    -0.00200
Br663      Br  0.87271328  0.41651167  0.01607640     0.00200
Br664      Br  0.91907461  0.29625714  0.94398821    -0.04200
Br665      Br  0.80420876  0.27493238  0.89476192     0.00300
Br666      Br  0.86360100  0.29593617  0.02845540    -0.03500
Br667      Br  0.82459827  0.36493200  0.99579719    -0.04300
Br668      Br  0.96201829  0.35463783  0.94348933    -0.00400
C669        C  0.09761652  0.59770083  0.99298694     0.01100
C670        C  0.09636162  0.62116558  0.97214776     0.03900
C671        C  0.11910508  0.64263301  0.97123690    -0.12200
C672        C  0.14153815  0.64279208  0.99311225     0.23200
C673        C  0.14117902  0.62080773  0.01554233    -0.12700
C674        C  0.12034240  0.59753025  0.01450987     0.04600
C675        C  0.16762764  0.66313491  0.99014809     0.27000
C676        C  0.19540787  0.65097191  0.98291752    -0.13400
C677        C  0.22028215  0.66938246  0.98060510     0.05100
C678        C  0.21707583  0.70066707  0.97914281    -0.09400
C679        C  0.18943328  0.71311378  0.98711140     0.05900
C680        C  0.16515872  0.69426164  0.99395928    -0.13800
Br681      Br  0.17008891  0.62188204  0.04714886    -0.05800
Br682      Br  0.06492833  0.62263866  0.94303952    -0.00200
Br683      Br  0.25894452  0.65109824  0.98195714     0.00200
Br684      Br  0.12836508  0.71096407  0.00782400    -0.04200
Br685      Br  0.12349113  0.56510745  0.04235608     0.00300
Br686      Br  0.12108809  0.66989634  0.93820640    -0.03500
Br687      Br  0.19935927  0.60924595  0.97348527    -0.04300
Br688      Br  0.18423410  0.75553474  0.98781368    -0.00400
C689        C  0.11051469  0.40058587  0.96900937     0.01100
C690        C  0.11646729  0.38050754  0.99231364     0.03900
C691        C  0.13930511  0.35939388  0.98939259    -0.12200
C692        C  0.15338572  0.35517557  0.96169967     0.23200
C693        C  0.14635189  0.37437846  0.93792019    -0.12700
C694        C  0.12685870  0.39846231  0.94242289     0.04600
C695        C  0.17579159  0.33093299  0.95824503     0.27000
C696        C  0.20617580  0.33781207  0.95549020    -0.13400
C697        C  0.22748686  0.31506754  0.95730433     0.05100
C698        C  0.21891257  0.28575059  0.96438326    -0.09400
C699        C  0.18863337  0.27847274  0.96502089     0.05900
C700        C  0.16711341  0.30086304  0.96087658    -0.13800
Br701      Br  0.16199658  0.36678144  0.89882385    -0.05800
Br702      Br  0.09355762  0.38199629  0.02848109    -0.00200
Br703      Br  0.26895607  0.32432291  0.95217921     0.00200
Br704      Br  0.12561619  0.29070168  0.96086757    -0.04200
Br705      Br  0.12334807  0.42888607  0.91258181     0.00300
Br706      Br  0.15182536  0.33686099  0.02368871    -0.03500
Br707      Br  0.21912430  0.37857502  0.95254834    -0.04300
Br708      Br  0.17672720  0.23863626  0.97496377    -0.00400
C709        C  0.90201833  0.48064168  0.89473589     0.01100
C710        C  0.87728723  0.46302201  0.90334005     0.03900
C711        C  0.85595260  0.45478264  0.88241218    -0.12200
C712        C  0.85904945  0.46359825  0.85285400     0.23200
C713        C  0.88419390  0.47922791  0.84341811    -0.12700
C714        C  0.90546479  0.48834727  0.86423594     0.04600
C715        C  0.83312536  0.46186863  0.83339423     0.27000
C716        C  0.82802839  0.43683623  0.81553735    -0.13400
C717        C  0.80338617  0.43640203  0.79651430     0.05100
C718        C  0.78369954  0.46068542  0.79607544    -0.09400
C719        C  0.78821245  0.48503319  0.81523262     0.05900
C720        C  0.81301681  0.48566594  0.83371287    -0.13800
Br721      Br  0.88850199  0.48892774  0.80183321    -0.05800
Br722      Br  0.87167482  0.44843066  0.94311551    -0.00200
Br723      Br  0.79689907  0.40308316  0.77054017     0.00200
Br724      Br  0.82021511  0.51974835  0.85886211    -0.04200
Br725      Br  0.93771196  0.51295186  0.85002934     0.00300
Br726      Br  0.82143547  0.43209159  0.89409369    -0.03500
Br727      Br  0.85514229  0.40377805  0.81690719    -0.04300
Br728      Br  0.76227609  0.51907559  0.81465578    -0.00400
C729        C  0.09132389  0.52385800  0.88208742     0.01100
C730        C  0.11342013  0.54529623  0.88813122     0.03900
C731        C  0.13315252  0.55397625  0.86588266    -0.12200
C732        C  0.13033072  0.54205438  0.83736453     0.23200
C733        C  0.10612180  0.52395338  0.83004518    -0.12700
C734        C  0.08691115  0.51417600  0.85246916     0.04600
C735        C  0.15664396  0.54124517  0.81846246     0.27000
C736        C  0.16091138  0.56201956  0.79560503    -0.13400
C737        C  0.18580708  0.55944931  0.77711849     0.05100
C738        C  0.20691699  0.53699101  0.78265606    -0.09400
C739        C  0.20278788  0.51668379  0.80621599     0.05900
C740        C  0.17750681  0.51868347  0.82383273    -0.13800
Br741      Br  0.10098967  0.51092355  0.78956098    -0.05800
Br742      Br  0.11716020  0.56360871  0.92637056    -0.00200
Br743      Br  0.19042966  0.58590535  0.74374437     0.00200
Br744      Br  0.17070022  0.48950554  0.85474013    -0.04200
Br745      Br  0.05639299  0.48589173  0.84221218     0.00300
Br746      Br  0.16599399  0.58001354  0.87485279    -0.03500
Br747      Br  0.13240432  0.59335106  0.78959388    -0.04300
Br748      Br  0.22971093  0.48386501  0.81305623    -0.00400
C749        C  0.11149348  0.48781278  0.07509889     0.01100
C750        C  0.10988543  0.50543421  0.10089238     0.03900
C751        C  0.13208287  0.50318203  0.12232115    -0.12200
C752        C  0.15611852  0.48398381  0.11750891     0.23200
C753        C  0.15899340  0.46802359  0.09101064    -0.12700
C754        C  0.13657973  0.46983860  0.06967380     0.04600
C755        C  0.17807290  0.48049563  0.14086872     0.27000
C756        C  0.20202736  0.50024777  0.14210660    -0.13400
C757        C  0.21975987  0.50089371  0.16745299     0.05100
C758        C  0.21393445  0.48092146  0.19086195    -0.09400
C759        C  0.19115611  0.45974983  0.18864092     0.05900
C760        C  0.17299368  0.45968561  0.16354782    -0.13800
Br761      Br  0.19354979  0.44358294  0.08442693    -0.05800
Br762      Br  0.07845166  0.53401563  0.10634365    -0.00200
Br763      Br  0.25016109  0.53090345  0.17087932     0.00200
Br764      Br  0.14067269  0.43180611  0.16036466    -0.04200
Br765      Br  0.14035974  0.44693893  0.03377482     0.00300
Br766      Br  0.12960711  0.52613142  0.15848481    -0.03500
Br767      Br  0.20963946  0.52699638  0.10945809    -0.04300
Br768      Br  0.18506147  0.43069757  0.21959716    -0.00400
C769        C  0.91521438  0.47767895  0.09074345     0.01100
C770        C  0.91642020  0.45367888  0.11082487     0.03900
C771        C  0.89466101  0.45103852  0.13286105    -0.12200
C772        C  0.87169420  0.47207586  0.13435811     0.23200
C773        C  0.87081975  0.49632318  0.11475069    -0.12700
C774        C  0.89281928  0.49937517  0.09318852     0.04600
C775        C  0.84872893  0.46954680  0.15714502     0.27000
C776        C  0.82236045  0.45424478  0.15080388    -0.13400
C777        C  0.79921420  0.45430010  0.17153720     0.05100
C778        C  0.80258824  0.46991899  0.19851986    -0.09400
C779        C  0.82879838  0.48604043  0.20423753     0.05900
C780        C  0.85211128  0.48521312  0.18383161    -0.13800
Br781      Br  0.83948811  0.52545505  0.11770809    -0.05800
Br782      Br  0.94699346  0.42384319  0.10760479    -0.00200
Br783      Br  0.76293928  0.43345264  0.16233769     0.00200
Br784      Br  0.88827872  0.50681478  0.19152224    -0.04200
Br785      Br  0.89301773  0.53426931  0.06827047     0.00300
Br786      Br  0.89612769  0.41883338  0.16108204    -0.03500
Br787      Br  0.81777866  0.43430000  0.11314387    -0.04300
Br788      Br  0.83169150  0.51248339  0.23788619    -0.00400
C789        C  0.50503021  0.40075568  0.89020981     0.01100
C790        C  0.50921361  0.41443865  0.86168962     0.03900
C791        C  0.50492078  0.39833563  0.83527172    -0.12200
C792        C  0.50167651  0.36746780  0.83607229     0.23200
C793        C  0.50162073  0.35287868  0.86386060    -0.12700
C794        C  0.50182865  0.36935018  0.89076342     0.04600
C795        C  0.49911529  0.35045634  0.80756859     0.27000
C796        C  0.47128504  0.34017479  0.79766745    -0.13400
C797        C  0.46946285  0.32087652  0.77304264     0.05100
C798        C  0.49527954  0.31238480  0.75763026    -0.09400
C799        C  0.52237266  0.32607487  0.76498974     0.05900
C800        C  0.52442158  0.34480910  0.79000009    -0.13800
Br801      Br  0.50177568  0.31005986  0.86477184    -0.05800
Br802      Br  0.52349523  0.45465802  0.85675312    -0.00200
Br803      Br  0.43212340  0.30330179  0.76213624     0.00200
Br804      Br  0.56221802  0.36145059  0.80102178    -0.04200
Br805      Br  0.49735637  0.34805799  0.92764534     0.00300
Br806      Br  0.50279364  0.41871589  0.79746464    -0.03500
Br807      Br  0.43583814  0.35204478  0.81833619    -0.04300
Br808      Br  0.55738581  0.31602664  0.74264028    -0.00400
C809        C  0.49812132  0.69392418  0.77914167     0.01100
C810        C  0.51857658  0.67067245  0.78383081     0.03900
C811        C  0.51464071  0.65068092  0.80747908    -0.12200
C812        C  0.49026851  0.65388562  0.82672259     0.23200
C813        C  0.46898360  0.67609671  0.82129875    -0.12700
C814        C  0.47281987  0.69602653  0.79746821     0.04600
C815        C  0.48716086  0.63351338  0.85243494     0.27000
C816        C  0.47413217  0.60560565  0.84825032    -0.13400
C817        C  0.47458098  0.58436211  0.87111289     0.05100
C818        C  0.48731209  0.59141480  0.89925625    -0.09400
C819        C  0.49990256  0.62004396  0.90339982     0.05900
C820        C  0.49946167  0.64098176  0.88012287    -0.13800
Br821      Br  0.43562437  0.68015937  0.84776384    -0.05800
Br822      Br  0.55325966  0.66759792  0.75898416    -0.00200
Br823      Br  0.45840672  0.54558190  0.86180954     0.00200
Br824      Br  0.51624423  0.68000384  0.88575009    -0.04200
Br825      Br  0.44499903  0.72806062  0.79200935     0.00300
Br826      Br  0.54353456  0.61982959  0.81466065    -0.03500
Br827      Br  0.45588709  0.59660295  0.81048526    -0.04300
Br828      Br  0.52083813  0.63040601  0.93942271    -0.00400
C829        C  0.49278236  0.58876485  0.10123651     0.01100
C830        C  0.49894654  0.61958869  0.09750066     0.03900
C831        C  0.50413958  0.63798693  0.12252981    -0.12200
C832        C  0.50121927  0.62674235  0.15162578     0.23200
C833        C  0.49324515  0.59686383  0.15551682    -0.12700
C834        C  0.48810267  0.57830721  0.13078350     0.04600
C835        C  0.50296408  0.64707420  0.17803819     0.27000
C836        C  0.53014987  0.65278451  0.19252556    -0.13400
C837        C  0.53160116  0.67391117  0.21577308     0.05100
C838        C  0.50610177  0.68990057  0.22426793    -0.09400
C839        C  0.47855861  0.68181222  0.21196014     0.05900
C840        C  0.47694704  0.66060275  0.18898552    -0.13800
Br841      Br  0.48957337  0.58136307  0.19532128    -0.05800
Br842      Br  0.49777925  0.63831568  0.05888303    -0.00200
Br843      Br  0.56860359  0.68206749  0.23538705     0.00200
Br844      Br  0.43914166  0.65106366  0.17150254    -0.04200
Br845      Br  0.47079491  0.53978561  0.13844661     0.00300
Br846      Br  0.51597217  0.67882630  0.11716086    -0.03500
Br847      Br  0.56548097  0.63256561  0.17962141    -0.04300
Br848      Br  0.44316938  0.70139974  0.22577584    -0.00400
C849        C  0.51544964  0.39509154  0.09860655     0.01100
C850        C  0.50402567  0.36573972  0.09826157     0.03900
C851        C  0.50394167  0.34821170  0.12454561    -0.12200
C852        C  0.51480335  0.35968375  0.15171747     0.23200
C853        C  0.52737069  0.38829069  0.15175306    -0.12700
C854        C  0.52916461  0.40504686  0.12525556     0.04600
C855        C  0.51405318  0.34124111  0.17981553     0.27000
C856        C  0.48702695  0.33568938  0.19470289    -0.13400
C857        C  0.48562111  0.31434612  0.21785062     0.05100
C858        C  0.51136974  0.29921266  0.22738687    -0.09400
C859        C  0.53886034  0.30810161  0.21539907     0.05900
C860        C  0.54020980  0.32815656  0.19121088    -0.13800
Br861      Br  0.54110257  0.40522929  0.18863508    -0.05800
Br862      Br  0.48852908  0.34883633  0.06212126    -0.00200
Br863      Br  0.44790071  0.30313994  0.23433707     0.00200
Br864      Br  0.57769845  0.33533661  0.17196237    -0.04200
Br865      Br  0.55351656  0.44024056  0.12536131     0.00300
Br866      Br  0.48850195  0.30828163  0.12348799    -0.03500
Br867      Br  0.45164793  0.35625280  0.18221386    -0.04300
Br868      Br  0.57445117  0.28941991  0.22999124    -0.00400
C869        C  0.59790612  0.09636877  0.98603278     0.01100
C870        C  0.62407662  0.09184473  0.00303268     0.03900
C871        C  0.64854905  0.11100400  0.99983175    -0.12200
C872        C  0.64666527  0.13617303  0.98142617     0.23200
C873        C  0.61997061  0.14204992  0.96616091    -0.12700
C874        C  0.59609829  0.12178461  0.96755652     0.04600
C875        C  0.67273086  0.15653808  0.97855920     0.27000
C876        C  0.67856560  0.17777632  0.00074907    -0.13400
C877        C  0.70250645  0.19767342  0.99763963     0.05100
C878        C  0.72097714  0.19665546  0.97234723    -0.09400
C879        C  0.71602276  0.17435630  0.95093557     0.05900
C880        C  0.69193326  0.15449302  0.95391082    -0.13800
Br881      Br  0.61615637  0.17807052  0.94331869    -0.05800
Br882      Br  0.62671509  0.06010030  0.03187460    -0.00200
Br883      Br  0.70853563  0.22836844  0.02682160     0.00200
Br884      Br  0.68404549  0.12557474  0.92336287    -0.04200
Br885      Br  0.56224899  0.12809095  0.94205719     0.00300
Br886      Br  0.68519199  0.10257416  0.02034492    -0.03500
Br887      Br  0.65236205  0.18089517  0.03443860    -0.04300
Br888      Br  0.74090556  0.17275748  0.91625527    -0.00400
C889        C  0.40847907  0.89006963  0.97849444     0.01100
C890        C  0.41057961  0.86424200  0.96077628     0.03900
C891        C  0.38700838  0.84361805  0.96014866    -0.12200
C892        C  0.36080364  0.84905292  0.97632736     0.23200
C893        C  0.35875492  0.87454276  0.99415279    -0.12700
C894        C  0.38272118  0.89442791  0.99598431     0.04600
C895        C  0.33537908  0.82795573  0.97475657     0.27000
C896        C  0.31412129  0.83067123  0.95198570    -0.13400
C897        C  0.29093224  0.80984160  0.94967716     0.05100
C898        C  0.28917630  0.78575310  0.96963762    -0.09400
C899        C  0.30966351  0.78388290  0.99322180     0.05900
C900        C  0.33265345  0.80492723  0.99580077    -0.13800
Br901      Br  0.32264456  0.88242060  0.01571487    -0.05800
Br902      Br  0.44483175  0.85750109  0.93608720    -0.00200
Br903      Br  0.26260964  0.81282432  0.91776495     0.00200
Br904      Br  0.36206110  0.80080809  0.02659699    -0.04200
Br905      Br  0.38049187  0.92656724  0.02418989     0.00300
Br906      Br  0.39029266  0.80793031  0.93681876    -0.03500
Br907      Br  0.31830921  0.86152163  0.92254642    -0.04300
Br908      Br  0.30824524  0.75043793  0.01994912    -0.00400
C909        C  0.61132250  0.90345305  0.98691135     0.01100
C910        C  0.61005023  0.87429526  0.99898055     0.03900
C911        C  0.63567439  0.85598233  0.99965801    -0.12200
C912        C  0.66344364  0.86681969  0.99008969     0.23200
C913        C  0.66506299  0.89578213  0.97852564    -0.12700
C914        C  0.63935525  0.91365490  0.97612089     0.04600
C915        C  0.69068940  0.84737803  0.99112330     0.27000
C916        C  0.70604948  0.84234293  0.01804878    -0.13400
C917        C  0.72852775  0.82035156  0.01968356     0.05100
C918        C  0.73711889  0.80449472  0.99411168    -0.09400
C919        C  0.72524306  0.81337099  0.96651745     0.05900
C920        C  0.70119865  0.83345097  0.96511095    -0.13800
Br921      Br  0.70305263  0.91087967  0.96569796    -0.05800
Br922      Br  0.57397519  0.85927436  0.01647918    -0.00200
Br923      Br  0.74632006  0.81026203  0.05717394     0.00200
Br924      Br  0.68101078  0.83979738  0.92790378    -0.04200
Br925      Br  0.64369226  0.95149339  0.95616672     0.00300
Br926      Br  0.63271964  0.81537395  0.01301453    -0.03500
Br927      Br  0.69551669  0.86490058  0.05277867    -0.04300
Br928      Br  0.74069536  0.79570582  0.93080664    -0.00400
C929        C  0.28773925  0.19902859  0.96978033     0.01100
C930        C  0.28067134  0.17093911  0.98152427     0.03900
C931        C  0.30049572  0.14698227  0.97804973    -0.12200
C932        C  0.32753150  0.15114597  0.96292251     0.23200
C933        C  0.33317036  0.17842718  0.94865287    -0.12700
C934        C  0.31342712  0.20239390  0.95229959     0.04600
C935        C  0.35135575  0.12828854  0.96498561     0.27000
C936        C  0.36995792  0.12762916  0.99013192    -0.13400
C937        C  0.39307430  0.10670856  0.99216273     0.05100
C938        C  0.39777361  0.08607604  0.96910713    -0.09400
C939        C  0.37854764  0.08622679  0.94428410     0.05900
C940        C  0.35570265  0.10754379  0.94207709    -0.13800
Br941      Br  0.36892631  0.18343047  0.92574973    -0.05800
Br942      Br  0.24485260  0.16609854  0.00424962    -0.00200
Br943      Br  0.41724639  0.10530501  0.02748530     0.00200
Br944      Br  0.33043094  0.10887309  0.90760108    -0.04200
Br945      Br  0.32283483  0.24072130  0.93566302     0.00300
Br946      Br  0.29169831  0.10893068  0.99557229    -0.03500
Br947      Br  0.36372132  0.15559296  0.02191862    -0.04300
Br948      Br  0.38371359  0.05785984  0.91284915    -0.00400
C949        C  0.50527699  0.09394730  0.88544611     0.01100
C950        C  0.48315834  0.11608236  0.88528053     0.03900
C951        C  0.48671588  0.14120677  0.86751599    -0.12200
C952        C  0.51155919  0.14333190  0.84891834     0.23200
C953        C  0.53386395  0.12159620  0.84930767    -0.12700
C954        C  0.53103111  0.09709186  0.86812064     0.04600
C955        C  0.51169766  0.16585328  0.82573082     0.27000
C956        C  0.49514602  0.16044546  0.79997289    -0.13400
C957        C  0.49298880  0.18237057  0.77825096     0.05100
C958        C  0.50913940  0.20912378  0.78149946    -0.09400
C959        C  0.52648169  0.21406765  0.80722552     0.05900
C960        C  0.52707531  0.19258566  0.82971490    -0.13800
Br961      Br  0.56782970  0.12524340  0.82357746    -0.05800
Br962      Br  0.44743283  0.11171095  0.90833705    -0.00200
Br963      Br  0.46535529  0.17592246  0.74599661     0.00200
Br964      Br  0.54819402  0.19971399  0.86631122    -0.04200
Br965      Br  0.56321770  0.06903771  0.87138620     0.00300
Br966      Br  0.45730511  0.17244000  0.86780435    -0.03500
Br967      Br  0.47460274  0.12302211  0.79503915    -0.04300
Br968      Br  0.55013653  0.24953164  0.81186242    -0.00400
C969        C  0.52990822  0.89729810  0.88530997     0.01100
C970        C  0.56011522  0.88932799  0.88453421     0.03900
C971        C  0.57004893  0.86758178  0.86458725    -0.12200
C972        C  0.54973396  0.85387679  0.84537661     0.23200
C973        C  0.51969864  0.86258551  0.84544613    -0.12700
C974        C  0.50980835  0.88444291  0.86530808     0.04600
C975        C  0.55909045  0.82911322  0.82611796     0.27000
C976        C  0.56608128  0.83429205  0.79615335    -0.13400
C977        C  0.56571279  0.81050053  0.77601001     0.05100
C978        C  0.55743076  0.78193663  0.78594415    -0.09400
C979        C  0.55835745  0.77604349  0.81689525     0.05900
C980        C  0.55750050  0.79987387  0.83689658    -0.13800
Br981      Br  0.49202205  0.84403772  0.81870538    -0.05800
Br982      Br  0.58803403  0.90876629  0.91028199    -0.00200
Br983      Br  0.57607490  0.81704433  0.73499950     0.00200
Br984      Br  0.55083433  0.79270210  0.87862718    -0.04200
Br985      Br  0.46881750  0.89660593  0.86539998     0.00300
Br986      Br  0.61126990  0.85629573  0.86363809    -0.03500
Br987      Br  0.57329764  0.87419275  0.78251952    -0.04300
Br988      Br  0.56056683  0.73612856  0.83267058    -0.00400
C989        C  0.50856263  0.79456407  0.19944000     0.01100
C990        C  0.52420612  0.79108698  0.17247306     0.03900
C991        C  0.52144937  0.81251087  0.15006658    -0.12200
C992        C  0.50379385  0.83776979  0.15475102     0.23200
C993        C  0.48911342  0.84201633  0.18190253    -0.12700
C994        C  0.49099664  0.82019885  0.20410419     0.04600
C995        C  0.50139332  0.86007774  0.13102732     0.27000
C996        C  0.52127546  0.88401592  0.13053758    -0.13400
C997        C  0.52126129  0.90353203  0.10636300     0.05100
C998        C  0.50129079  0.89913526  0.08262769    -0.09400
C999        C  0.48093337  0.87548518  0.08345803     0.05900
C1000       C  0.48091662  0.85601051  0.10780137    -0.13800
Br1001     Br  0.46662274  0.87790066  0.18850160    -0.05800
Br1002     Br  0.55081398  0.75800011  0.16631096    -0.00200
Br1003     Br  0.54972393  0.93538340  0.10549515     0.00200
Br1004     Br  0.45295716  0.82370878  0.10955014    -0.04200
Br1005     Br  0.46787754  0.82506905  0.23987219     0.00300
Br1006     Br  0.54222321  0.80769553  0.11286486    -0.03500
Br1007     Br  0.54888278  0.88963531  0.16284502    -0.04300
Br1008     Br  0.45244487  0.87035096  0.05191643    -0.00400
C1009       C  0.49313015  0.09330846  0.07737598     0.01100
C1010       C  0.47128643  0.09323794  0.09971406     0.03900
C1011       C  0.47233337  0.11468735  0.12214627    -0.12200
C1012       C  0.49439294  0.13671233  0.12130622     0.23200
C1013       C  0.51524437  0.13765247  0.09823191    -0.12700
C1014       C  0.51529855  0.11532257  0.07683835     0.04600
C1015       C  0.49717148  0.15789594  0.14563976     0.27000
C1016       C  0.47877155  0.18303291  0.14647150    -0.13400
C1017       C  0.48195136  0.20352146  0.16956301     0.05100
C1018       C  0.50449057  0.19931364  0.19090151    -0.09400
C1019       C  0.52384195  0.17487494  0.18905306     0.05900
C1020       C  0.51962340  0.15366794  0.16688813    -0.13800
Br1021     Br  0.54427841  0.16916325  0.09658894    -0.05800
Br1022     Br  0.43981736  0.06417548  0.09950246    -0.00200
Br1023     Br  0.45443292  0.23626936  0.17241301     0.00200
Br1024     Br  0.54475505  0.11892969  0.16536915    -0.04200
Br1025     Br  0.54760170  0.11353609  0.04886411     0.00300
Br1026     Br  0.44423228  0.11352825  0.15440905    -0.03500
Br1027     Br  0.44959077  0.18936727  0.11571839    -0.04300
Br1028     Br  0.55720583  0.17129482  0.21571433    -0.00400
C1029       C  0.27363484  0.00489887  0.17536949     0.01100
C1030       C  0.28927595  0.03041551  0.16583842     0.03900
C1031       C  0.31054596  0.02859229  0.14286632    -0.12200
C1032       C  0.31566056  0.00142427  0.12816229     0.23200
C1033       C  0.29743650  0.97687320  0.13510280    -0.12700
C1034       C  0.27701512  0.97842795  0.15896369     0.04600
C1035       C  0.34157018  0.99825358  0.10729443     0.27000
C1036       C  0.34046038  0.01027389  0.07844881    -0.13400
C1037       C  0.36584719  0.00995072  0.06001269     0.05100
C1038       C  0.39234529  0.99537260  0.06924915    -0.09400
C1039       C  0.39270681  0.98187353  0.09769343     0.05900
C1040       C  0.36799318  0.98439269  0.11689644    -0.13800
Br1041     Br  0.30189689  0.94055198  0.11299396    -0.05800
Br1042     Br  0.28388301  0.06728969  0.18687195    -0.00200
Br1043     Br  0.36397304  0.03158492  0.02300890     0.00200
Br1044     Br  0.37058350  0.96945195  0.15696909    -0.04200
Br1045     Br  0.25652325  0.94322265  0.17182894     0.00300
Br1046     Br  0.33475009  0.06266127  0.13345607    -0.03500
Br1047     Br  0.30378421  0.02726597  0.06425847    -0.04300
Br1048     Br  0.42604460  0.95794948  0.11010194    -0.00400
C1049       C  0.73879889  0.98126641  0.80095286     0.01100
C1050       C  0.73032983  0.95936848  0.82174370     0.03900
C1051       C  0.70760617  0.96507370  0.84253347    -0.12200
C1052       C  0.69316628  0.99289328  0.84270467     0.23200
C1053       C  0.70497447  0.01616133  0.82524660    -0.12700
C1054       C  0.72874348  0.01053955  0.80554304     0.04600
C1055       C  0.66442580  0.99666880  0.85911599     0.27000
C1056       C  0.63829469  0.98305820  0.84837035    -0.13400
C1057       C  0.61140629  0.98515405  0.86436070     0.05100
C1058       C  0.61029108  0.00095018  0.89153697    -0.09400
C1059       C  0.63597242  0.01665185  0.90078790     0.05900
C1060       C  0.66297322  0.01369635  0.88527706    -0.13800
Br1061     Br  0.68620240  0.05466267  0.82523848    -0.05800
Br1062     Br  0.74624292  0.91990207  0.81768963    -0.00200
Br1063     Br  0.57667003  0.96565437  0.84860345     0.00200
Br1064     Br  0.69840780  0.03206018  0.90072008    -0.04200
Br1065     Br  0.74443635  0.04186333  0.78109658     0.00300
Br1066     Br  0.69399699  0.93381996  0.86853000    -0.03500
Br1067     Br  0.63949686  0.96065049  0.81184271    -0.04300
Br1068     Br  0.63422867  0.04420879  0.93357435    -0.00400
C1069       C  0.40924047  0.99061445  0.87578508     0.01100
C1070       C  0.40807665  0.01354394  0.85432679     0.03900
C1071       C  0.38301587  0.01647946  0.83568730    -0.12200
C1072       C  0.35884230  0.99676971  0.83850136     0.23200
C1073       C  0.36036921  0.97347104  0.85929273    -0.12700
C1074       C  0.38558241  0.97006528  0.87742846     0.04600
C1075       C  0.33211010  0.99992307  0.81911391     0.27000
C1076       C  0.30952636  0.02042016  0.82620609    -0.13400
C1077       C  0.28516134  0.02439369  0.80692008     0.05100
C1078       C  0.28288333  0.00751933  0.78070501    -0.09400
C1079       C  0.30467563  0.98592992  0.77447893     0.05900
C1080       C  0.32917634  0.98217169  0.79354343    -0.13800
Br1081     Br  0.32731778  0.94662600  0.86342389    -0.05800
Br1082     Br  0.43955554  0.04245629  0.85186414    -0.00200
Br1083     Br  0.25552552  0.05401375  0.81544377     0.00200
Br1084     Br  0.35955524  0.95358921  0.78398243    -0.04200
Br1085     Br  0.38789558  0.93649468  0.90407051     0.00300
Br1086     Br  0.38134758  0.04800674  0.80671206    -0.03500
Br1087     Br  0.31244070  0.04353646  0.86197435    -0.04300
Br1088     Br  0.30210366  0.96303848  0.73845168    -0.00400
C1089       C  0.50124410  0.20925649  0.29711247     0.01100
C1090       C  0.48135076  0.18490532  0.29698784     0.03900
C1091       C  0.48544421  0.16059018  0.31623542    -0.12200
C1092       C  0.50565108  0.16232472  0.34006318     0.23200
C1093       C  0.52255535  0.18873957  0.34317581    -0.12700
C1094       C  0.52156518  0.21131397  0.32092662     0.04600
C1095       C  0.50770665  0.13668372  0.36183461     0.27000
C1096       C  0.48262321  0.12870036  0.37888096    -0.13400
C1097       C  0.48230905  0.10198760  0.39528045     0.05100
C1098       C  0.50836210  0.08514410  0.39918497    -0.09400
C1099       C  0.53364050  0.09291368  0.38245215     0.05900
C1100       C  0.53295284  0.11787369  0.36303844    -0.13800
Br1101     Br  0.54704188  0.19392499  0.37779782    -0.05800
Br1102     Br  0.44797151  0.18470945  0.27005883    -0.00200
Br1103     Br  0.44508418  0.08594643  0.40873772     0.00200
Br1104     Br  0.56615479  0.12550908  0.33728181    -0.04200
Br1105     Br  0.54886657  0.24405028  0.32234758     0.00300
Br1106     Br  0.46491231  0.12384283  0.30805034    -0.03500
Br1107     Br  0.44845950  0.15450296  0.38021774    -0.04300
Br1108     Br  0.56880222  0.06889646  0.38562136    -0.00400
C1109       C  0.50626282  0.88370485  0.41243476     0.01100
C1110       C  0.51946465  0.85649752  0.42163284     0.03900
C1111       C  0.52232546  0.83255567  0.40157095    -0.12200
C1112       C  0.51116546  0.83484894  0.37249124     0.23200
C1113       C  0.49722857  0.86138405  0.36348015    -0.12700
C1114       C  0.49477276  0.88565145  0.38318414     0.04600
C1115       C  0.51534849  0.81007564  0.35071228     0.27000
C1116       C  0.54048489  0.80988690  0.33221654    -0.13400
C1117       C  0.54288385  0.78899687  0.30907801     0.05100
C1118       C  0.51976647  0.76858139  0.30346363    -0.09400
C1119       C  0.49583660  0.76708114  0.32357948     0.05900
C1120       C  0.49351773  0.78792043  0.34699908    -0.13800
Br1121     Br  0.48170799  0.86439237  0.32365477    -0.05800
Br1122     Br  0.53459652  0.85138017  0.46143489    -0.00200
Br1123     Br  0.57723370  0.78949127  0.28357660     0.00200
Br1124     Br  0.45914807  0.78799505  0.37237352    -0.04200
Br1125     Br  0.47358058  0.92059620  0.37018704     0.00300
Br1126     Br  0.54244519  0.79663040  0.41348228    -0.03500
Br1127     Br  0.57030430  0.84020920  0.33686125    -0.04300
Br1128     Br  0.46504600  0.73812649  0.31757968    -0.00400
C1129       C  0.48378984  0.09815327  0.59271831     0.01100
C1130       C  0.47172450  0.12520798  0.58187043     0.03900
C1131       C  0.47364329  0.15155678  0.59851410    -0.12200
C1132       C  0.48601540  0.15127244  0.62712226     0.23200
C1133       C  0.49673949  0.12420286  0.63888922    -0.12700
C1134       C  0.49651605  0.09798002  0.62149361     0.04600
C1135       C  0.48814573  0.17968101  0.64431212     0.27000
C1136       C  0.51541900  0.19486367  0.64649960    -0.13400
C1137       C  0.51761780  0.22097642  0.66367694     0.05100
C1138       C  0.49281554  0.23207852  0.67907984    -0.09400
C1139       C  0.46497143  0.21870583  0.67422344     0.05900
C1140       C  0.46270480  0.19223739  0.65757420    -0.13800
Br1141     Br  0.51183071  0.12325178  0.67894879    -0.05800
Br1142     Br  0.45181544  0.12705642  0.54418813    -0.00200
Br1143     Br  0.55527016  0.24043092  0.66870935     0.00200
Br1144     Br  0.42525079  0.17173362  0.65512255    -0.04200
Br1145     Br  0.51609015  0.06289185  0.63640874     0.00300
Br1146     Br  0.45995935  0.18861051  0.58164410    -0.03500
Br1147     Br  0.55024693  0.17878269  0.62761350    -0.04300
Br1148     Br  0.43042533  0.23525640  0.69314165    -0.00400
C1149       C  0.47168114  0.89558231  0.60343210     0.01100
C1150       C  0.49762095  0.88718281  0.61882690     0.03900
C1151       C  0.49717675  0.86305871  0.63876841    -0.12200
C1152       C  0.47119592  0.84608563  0.64251458     0.23200
C1153       C  0.44540276  0.85393260  0.62664638    -0.12700
C1154       C  0.44563304  0.87864226  0.60724398     0.04600
C1155       C  0.47153081  0.82026569  0.66339444     0.27000
C1156       C  0.48342749  0.79266177  0.65442392    -0.13400
C1157       C  0.49055148  0.77082424  0.67583832     0.05100
C1158       C  0.48514593  0.77629590  0.70611427    -0.09400
C1159       C  0.46956424  0.80210134  0.71439415     0.05900
C1160       C  0.46345567  0.82437189  0.69330827    -0.13800
Br1161     Br  0.41012070  0.83023583  0.63094921    -0.05800
Br1162     Br  0.53467416  0.90680563  0.61046971    -0.00200
Br1163     Br  0.50951651  0.73435056  0.66416651     0.00200
Br1164     Br  0.44660612  0.86162543  0.70588350    -0.04200
Br1165     Br  0.41065858  0.88852130  0.58485188     0.00300
Br1166     Br  0.53246245  0.85285592  0.66079620    -0.03500
Br1167     Br  0.49187504  0.78580668  0.61308293    -0.04300
Br1168     Br  0.45758974  0.80715500  0.75509161    -0.00400
C1169       C  0.31230587  0.99882217  0.27414772     0.01100
C1170       C  0.33012429  0.97318396  0.27407491     0.03900
C1171       C  0.35481414  0.97169397  0.29278047    -0.12200
C1172       C  0.36096286  0.99551799  0.31193721     0.23200
C1173       C  0.34384483  0.02163454  0.31109601    -0.12700
C1174       C  0.31961781  0.02340685  0.29180670     0.04600
C1175       C  0.38238780  0.99136446  0.33592930     0.27000
C1176       C  0.37346085  0.97568551  0.36133107    -0.13400
C1177       C  0.39310920  0.97231436  0.38496323     0.05100
C1178       C  0.42065747  0.98706612  0.38443294    -0.09400
C1179       C  0.43019701  0.00159513  0.35823715     0.05900
C1180       C  0.41103196  0.00330395  0.33378259    -0.13800
Br1181     Br  0.35264604  0.05418246  0.33748612    -0.05800
Br1182     Br  0.31967440  0.93952973  0.24975192    -0.00200
Br1183     Br  0.38261092  0.94587507  0.41699403     0.00200
Br1184     Br  0.42328447  0.02288368  0.29769539    -0.04200
Br1185     Br  0.29640694  0.05932701  0.28943176     0.00300
Br1186     Br  0.37936249  0.93656810  0.29354978    -0.03500
Br1187     Br  0.33366518  0.96007441  0.36437116    -0.04300
Br1188     Br  0.46859181  0.02035241  0.35556177    -0.00400
C1189       C  0.56453196  0.98973247  0.62238018     0.01100
C1190       C  0.55410820  0.97399825  0.64759186     0.03900
C1191       C  0.57452980  0.96370379  0.66882586    -0.12200
C1192       C  0.60472625  0.97049765  0.66562744     0.23200
C1193       C  0.61429385  0.98950203  0.64277693    -0.12700
C1194       C  0.59407706  0.99979487  0.62170806     0.04600
C1195       C  0.62652609  0.96099192  0.68790124     0.27000
C1196       C  0.63329166  0.98077675  0.71088641    -0.13400
C1197       C  0.66051800  0.97845179  0.72550300     0.05100
C1198       C  0.68014629  0.95485087  0.71850878    -0.09400
C1199       C  0.67141915  0.93286547  0.69815906     0.05900
C1200       C  0.64480447  0.93628759  0.68231215    -0.13800
Br1201     Br  0.65536328  0.00114460  0.63999821    -0.05800
Br1202     Br  0.51237314  0.96704713  0.65427336    -0.00200
Br1203     Br  0.67185934  0.01063875  0.75139033     0.00200
Br1204     Br  0.63450798  0.90889063  0.65114962    -0.04200
Br1205     Br  0.60652903  0.02934444  0.59314182     0.00300
Br1206     Br  0.56158843  0.93986758  0.70198329    -0.03500
Br1207     Br  0.60665362  0.01334485  0.71950838    -0.04300
Br1208     Br  0.69629056  0.89874518  0.69149773    -0.00400
C1209       C  0.28033747  0.06201168  0.68858129     0.01100
C1210       C  0.26857713  0.06405483  0.65947227     0.03900
C1211       C  0.28732284  0.05974514  0.63496679    -0.12200
C1212       C  0.31775384  0.05525729  0.63966768     0.23200
C1213       C  0.33010093  0.06069397  0.66777624    -0.12700
C1214       C  0.31136568  0.06525982  0.69219892     0.04600
C1215       C  0.33648567  0.04258462  0.61606473     0.27000
C1216       C  0.34222542  0.01181457  0.61599091    -0.13400
C1217       C  0.36307472  0.99992499  0.59615108     0.05100
C1218       C  0.37758598  0.01861565  0.57583014    -0.09400
C1219       C  0.37120257  0.04928528  0.57557374     0.05900
C1220       C  0.35073337  0.06128388  0.59567997    -0.13800
Br1221     Br  0.37254804  0.05940355  0.67301283    -0.05800
Br1222     Br  0.22718396  0.07265033  0.65284061    -0.00200
Br1223     Br  0.37322589  0.95851144  0.59819043     0.00200
Br1224     Br  0.34385463  0.10356572  0.59707249    -0.04200
Br1225     Br  0.32862989  0.07590775  0.72996039     0.00300
Br1226     Br  0.27131667  0.05784865  0.59532489    -0.03500
Br1227     Br  0.32277122  0.98630380  0.64437880    -0.04300
Br1228     Br  0.39300058  0.07558897  0.55030136    -0.00400
C1229       C  0.70606953  0.98518092  0.19957116     0.01100
C1230       C  0.68517844  0.96230919  0.19419852     0.03900
C1231       C  0.66295906  0.96587240  0.17257515    -0.12200
C1232       C  0.66259861  0.99124445  0.15427148     0.23200
C1233       C  0.68461212  0.01321559  0.15810403    -0.12700
C1234       C  0.70600913  0.01043231  0.18093711     0.04600
C1235       C  0.63951439  0.99406232  0.13055051     0.27000
C1236       C  0.64121510  0.97595155  0.10515865    -0.13400
C1237       C  0.61864596  0.97682907  0.08361408     0.05100
C1238       C  0.59458162  0.99690820  0.08630251    -0.09400
C1239       C  0.59308216  0.01536614  0.11162164     0.05900
C1240       C  0.61511926  0.01346352  0.13391770    -0.13800
Br1241     Br  0.68446367  0.04786788  0.13291719    -0.05800
Br1242     Br  0.68658141  0.92575202  0.21678359    -0.00200
Br1243     Br  0.62014160  0.94848507  0.05163817     0.00200
Br1244     Br  0.61158145  0.03689351  0.16954513    -0.04200
Br1245     Br  0.73358497  0.04231671  0.18792985     0.00300
Br1246     Br  0.63164863  0.93678211  0.16938534    -0.03500
Br1247     Br  0.67453160  0.94939996  0.10004149    -0.04300
Br1248     Br  0.56170621  0.04422743  0.11533853    -0.00400
C1249       C  0.60899745  0.96816678  0.43111372     0.01100
C1250       C  0.61091819  0.94018513  0.41729476     0.03900
C1251       C  0.63064018  0.93606300  0.39363850    -0.12200
C1252       C  0.64984324  0.95925987  0.38563918     0.23200
C1253       C  0.65054189  0.98576700  0.40212689    -0.12700
C1254       C  0.62907082  0.99079524  0.42386660     0.04600
C1255       C  0.66491875  0.95894572  0.35685370     0.27000
C1256       C  0.69340918  0.94682839  0.35415926    -0.13400
C1257       C  0.70979971  0.95198572  0.32824762     0.05100
C1258       C  0.69829085  0.97102224  0.30599065    -0.09400
C1259       C  0.66924546  0.98242310  0.30857343     0.05900
C1260       C  0.65217547  0.97519032  0.33342050    -0.13800
Br1261     Br  0.67865892  0.01655082  0.39228172    -0.05800
Br1262     Br  0.58520798  0.90833447  0.42950839    -0.00200
Br1263     Br  0.74751699  0.93219171  0.32348013     0.00200
Br1264     Br  0.61173254  0.98911954  0.33645816    -0.04200
Br1265     Br  0.62397514  0.03009575  0.43976796     0.00300
Br1266     Br  0.62907550  0.90031369  0.37017057    -0.03500
Br1267     Br  0.71028256  0.92448345  0.38659507    -0.04300
Br1268     Br  0.65350566  0.01067178  0.28027405    -0.00400
C1269       C  0.29793865  0.76678310  0.48062423     0.01100
C1270       C  0.32207620  0.76965353  0.50030089     0.03900
C1271       C  0.34187066  0.79384597  0.49783510    -0.12200
C1272       C  0.33730993  0.81594607  0.47604741     0.23200
C1273       C  0.31506583  0.81144314  0.45444599    -0.12700
C1274       C  0.29584153  0.78668832  0.45645489     0.04600
C1275       C  0.35508873  0.84421769  0.47673776     0.27000
C1276       C  0.34775591  0.86729313  0.49674927    -0.13400
C1277       C  0.36558677  0.89310173  0.49878177     0.05100
C1278       C  0.39149141  0.89581139  0.48147028    -0.09400
C1279       C  0.39773149  0.87347839  0.46024817     0.05900
C1280       C  0.37975260  0.84790518  0.45795354    -0.13800
Br1281     Br  0.30937355  0.84050590  0.42352103    -0.05800
Br1282     Br  0.32589690  0.74185349  0.53260737    -0.00200
Br1283     Br  0.35496182  0.92428339  0.52596949     0.00200
Br1284     Br  0.38948822  0.81727236  0.42968077    -0.04200
Br1285     Br  0.26396082  0.78210665  0.42832258     0.00300
Br1286     Br  0.37432930  0.79769714  0.52537618    -0.03500
Br1287     Br  0.31375664  0.86305991  0.52224322    -0.04300
Br1288     Br  0.43050294  0.87823874  0.43335428    -0.00400
C1289       C  0.68620721  0.76266194  0.53271159     0.01100
C1290       C  0.67965869  0.77881154  0.55882062     0.03900
C1291       C  0.65699647  0.80058801  0.55903654    -0.12200
C1292       C  0.64044680  0.80654102  0.53312111     0.23200
C1293       C  0.64526395  0.78874596  0.50776914    -0.12700
C1294       C  0.66813025  0.76714495  0.50750290     0.04600
C1295       C  0.62036372  0.83329450  0.53151285     0.27000
C1296       C  0.59034405  0.83144557  0.53974264    -0.13400
C1297       C  0.57142591  0.85648607  0.53730684     0.05100
C1298       C  0.58227075  0.88419455  0.52634378    -0.09400
C1299       C  0.61286602  0.88594100  0.51881056     0.05900
C1300       C  0.63157161  0.86077559  0.52157552    -0.13800
Br1301     Br  0.62194715  0.79575357  0.47258925    -0.05800
Br1302     Br  0.70406001  0.77316178  0.59350595    -0.00200
Br1303     Br  0.53083398  0.85194096  0.55029754     0.00200
Br1304     Br  0.67311656  0.86368049  0.51168025    -0.04200
Br1305     Br  0.67724370  0.74619947  0.47138011     0.00300
Br1306     Br  0.65018965  0.82415613  0.59409090    -0.03500
Br1307     Br  0.57531434  0.79423467  0.55473299    -0.04300
Br1308     Br  0.62989218  0.92201980  0.50310514    -0.00400
C1309       C  0.69299293  0.21167474  0.50469624     0.01100
C1310       C  0.67193384  0.20393207  0.48288951     0.03900
C1311       C  0.65137796  0.18093439  0.48811699    -0.12200
C1312       C  0.65085288  0.16620066  0.51574762     0.23200
C1313       C  0.66900057  0.17684656  0.53894698    -0.12700
C1314       C  0.69033353  0.19919167  0.53333385     0.04600
C1315       C  0.63134744  0.13955821  0.52010532     0.27000
C1316       C  0.60149685  0.14324072  0.52793236    -0.13400
C1317       C  0.58249495  0.11843320  0.52987036     0.05100
C1318       C  0.59271272  0.08929947  0.52263420    -0.09400
C1319       C  0.62347765  0.08552681  0.51752335     0.05900
C1320       C  0.64241632  0.11055052  0.51577282    -0.13800
Br1321     Br  0.66512583  0.16003588  0.57808581    -0.05800
Br1322     Br  0.67261705  0.22407738  0.44511942    -0.00200
Br1323     Br  0.54300906  0.12521322  0.54475594     0.00200
Br1324     Br  0.68356254  0.10518729  0.50614433    -0.04200
Br1325     Br  0.71758275  0.21080386  0.56410446     0.00300
Br1326     Br  0.62493470  0.16852334  0.45688346    -0.03500
Br1327     Br  0.58655005  0.18281447  0.53514895    -0.04300
Br1328     Br  0.64056645  0.04652468  0.51324514    -0.00400
C1329       C  0.31041257  0.22564495  0.49680127     0.01100
C1330       C  0.31738643  0.21634999  0.46776222     0.03900
C1331       C  0.33822572  0.19343584  0.46312887    -0.12200
C1332       C  0.35199272  0.17944281  0.48753825     0.23200
C1333       C  0.34714872  0.19067712  0.51633667    -0.12700
C1334       C  0.32690226  0.21413265  0.52080583     0.04600
C1335       C  0.37065976  0.15234561  0.48303083     0.27000
C1336       C  0.35768470  0.12393328  0.48324528    -0.13400
C1337       C  0.37526902  0.09814378  0.47968326     0.05100
C1338       C  0.40672035  0.10038133  0.47761231    -0.09400
C1339       C  0.41912327  0.12956376  0.47471889     0.05900
C1340       C  0.40117697  0.15506968  0.47794218    -0.13800
Br1341     Br  0.36640269  0.17226173  0.54984730    -0.05800
Br1342     Br  0.29561865  0.23249019  0.43463437    -0.00200
Br1343     Br  0.35496051  0.06040721  0.47767947     0.00200
Br1344     Br  0.41834629  0.19435741  0.47627590    -0.04200
Br1345     Br  0.31973845  0.22925886  0.56015746     0.00300
Br1346     Br  0.34628116  0.17953683  0.42351555    -0.03500
Br1347     Br  0.31550196  0.12055363  0.48968011    -0.04300
Br1348     Br  0.46048589  0.13638262  0.46521621    -0.00400
C1349       C  0.78396944  0.97608374  0.69716427     0.01100
C1350       C  0.81483744  0.97494593  0.70355409     0.03900
C1351       C  0.83617218  0.97899262  0.68063103    -0.12200
C1352       C  0.82741036  0.98144098  0.65060212     0.23200
C1353       C  0.79696271  0.98176156  0.64399555    -0.12700
C1354       C  0.77560161  0.98121780  0.66693582     0.04600
C1355       C  0.84997284  0.98381931  0.62590101     0.27000
C1356       C  0.85441998  0.01100881  0.61069756    -0.13400
C1357       C  0.87524548  0.01305901  0.58726967     0.05100
C1358       C  0.89275532  0.98833813  0.57944723    -0.09400
C1359       C  0.88719445  0.96079036  0.59337921     0.05900
C1360       C  0.86593947  0.95852041  0.61638827    -0.13800
Br1361     Br  0.78440094  0.98217939  0.60293337    -0.05800
Br1362     Br  0.82880787  0.96633269  0.74308218    -0.00200
Br1363     Br  0.87924347  0.04953932  0.56515373     0.00200
Br1364     Br  0.85793556  0.92042896  0.63423365    -0.04200
Br1365     Br  0.73528931  0.99062621  0.65566388     0.00300
Br1366     Br  0.87776445  0.98151487  0.69019620    -0.03500
Br1367     Br  0.83199521  0.04565884  0.62197637    -0.04300
Br1368     Br  0.90713650  0.92563331  0.57920639    -0.00400
C1369       C  0.08874651  0.98997792  0.59510391     0.01100
C1370       C  0.10094154  0.01639049  0.60657667     0.03900
C1371       C  0.12215191  0.01539686  0.62962152    -0.12200
C1372       C  0.12939812  0.98819531  0.64354089     0.23200
C1373       C  0.11498106  0.96203358  0.63401737    -0.12700
C1374       C  0.09469681  0.96293650  0.61000396     0.04600
C1375       C  0.15209769  0.98754759  0.66801331     0.27000
C1376       C  0.18104521  0.97711199  0.66232102    -0.13400
C1377       C  0.20360891  0.98091916  0.68361704     0.05100
C1378       C  0.19824161  0.99724171  0.70974543    -0.09400
C1379       C  0.16893596  0.00542173  0.71669897     0.05900
C1380       C  0.14577854  0.99993886  0.69619436    -0.13800
Br1381     Br  0.12266696  0.92506868  0.65427815    -0.05800
Br1382     Br  0.08583044  0.05418141  0.59329951    -0.00200
Br1383     Br  0.24292802  0.96581535  0.67620344     0.00200
Br1384     Br  0.10571508  0.01124664  0.70575745    -0.04200
Br1385     Br  0.07330521  0.92751331  0.59901868     0.00300
Br1386     Br  0.14178343  0.05147216  0.64166847    -0.03500
Br1387     Br  0.19083390  0.96065025  0.62407814    -0.04300
Br1388     Br  0.16112078  0.02598798  0.75331019    -0.00400
C1389       C  0.20548410  0.99369884  0.26535264     0.01100
C1390       C  0.19986794  0.96642293  0.27991926     0.03900
C1391       C  0.17892595  0.96454280  0.30329105    -0.12200
C1392       C  0.16266201  0.98979291  0.31224635     0.25000
C1393       C  0.16711766  0.01674538  0.29671117    -0.12700
C1394       C  0.18865699  0.01878205  0.27379006     0.04600
C1395       C  0.14133045  0.98802794  0.33819922     0.27000
C1396       C  0.11203869  0.97840069  0.33389210    -0.13400
C1397       C  0.09198265  0.97612283  0.35807648     0.05100
C1398       C  0.10047888  0.98482605  0.38763531    -0.09400
C1399       C  0.13022472  0.99476960  0.39149833     0.05900
C1400       C  0.15038020  0.99567728  0.36718409    -0.13800
Br1401     Br  0.14467058  0.05131730  0.30806589    -0.05800
Br1402     Br  0.22259477  0.93182882  0.26897175    -0.00200
Br1403     Br  0.05296939  0.96065121  0.34873567     0.00200
Br1404     Br  0.19094030  0.00771725  0.37326311    -0.04200
Br1405     Br  0.19718957  0.05661952  0.25577401     0.00300
Br1406     Br  0.17392720  0.92773907  0.32457918    -0.03500
Br1407     Br  0.09941257  0.96876932  0.29400470    -0.04300
Br1408     Br  0.14387949  0.00935324  0.42935590    -0.00400
C1409       C  0.90686085  0.99041032  0.38018838     0.01100
C1410       C  0.91399268  0.00452418  0.35280252     0.03900
C1411       C  0.89371795  0.00418279  0.32888462    -0.12200
C1412       C  0.86520948  0.99212258  0.33253732     0.23200
C1413       C  0.85769570  0.97867953  0.35978919    -0.12700
C1414       C  0.87869992  0.97668374  0.38297240     0.04600
C1415       C  0.84282412  0.99409575  0.30803867     0.27000
C1416       C  0.82671039  0.02058577  0.30348208    -0.13400
C1417       C  0.80320218  0.02140898  0.28283951     0.05100
C1418       C  0.79476005  0.99552411  0.26746731    -0.09400
C1419       C  0.81213279  0.96966265  0.27051994     0.05900
C1420       C  0.83623075  0.96900466  0.29050835    -0.13800
Br1421     Br  0.81818221  0.96328657  0.36545474    -0.05800
Br1422     Br  0.95034710  0.02667606  0.34788981    -0.00200
Br1423     Br  0.78005201  0.05708539  0.27790173     0.00200
Br1424     Br  0.85856169  0.93289988  0.29592376    -0.04200
Br1425     Br  0.86898324  0.95314954  0.41750131     0.00300
Br1426     Br  0.90491718  0.02000762  0.29066232    -0.03500
Br1427     Br  0.83463881  0.05474937  0.32793428    -0.04300
Br1428     Br  0.80016929  0.93391144  0.25030509    -0.00400
C1429       C  0.09363827  0.89149596  0.51002532     0.01100
C1430       C  0.09238318  0.86230897  0.49865482     0.03900
C1431       C  0.11303761  0.84101558  0.50832358    -0.12200
C1432       C  0.13319130  0.84800989  0.53116488     0.23200
C1433       C  0.13265250  0.87615855  0.54434648    -0.12700
C1434       C  0.11522745  0.89862082  0.53180130     0.04600
C1435       C  0.16002106  0.82970863  0.53479459     0.27000
C1436       C  0.15961317  0.80302479  0.55099849    -0.13400
C1437       C  0.18402040  0.78366823  0.54945012     0.05100
C1438       C  0.20827808  0.79061198  0.53090656    -0.09400
C1439       C  0.20990796  0.81914830  0.51757368     0.05900
C1440       C  0.18574680  0.83848920  0.51951659    -0.13800
Br1441     Br  0.15888216  0.88467684  0.57719865    -0.05800
Br1442     Br  0.06542830  0.85237000  0.46688013    -0.00200
Br1443     Br  0.18405775  0.74730730  0.57214259     0.00200
Br1444     Br  0.18680682  0.87610175  0.49844385    -0.04200
Br1445     Br  0.12530183  0.93902955  0.54175208     0.00300
Br1446     Br  0.11577115  0.80326646  0.48828954    -0.03500
Br1447     Br  0.12493203  0.79229305  0.57351098    -0.04300
Br1448     Br  0.24308256  0.83193826  0.49360625    -0.00400
C1449       C  0.78754909  0.78857603  0.51195051     0.01100
C1450       C  0.79089453  0.79846962  0.48253016     0.03900
C1451       C  0.81174657  0.82053390  0.47607250    -0.12200
C1452       C  0.82892389  0.83250086  0.49916195     0.23200
C1453       C  0.82511506  0.82297320  0.52867572    -0.12700
C1454       C  0.80453677  0.80069652  0.53502860     0.04600
C1455       C  0.85158435  0.85477675  0.49272071     0.27000
C1456       C  0.88034320  0.84551358  0.48554046    -0.13400
C1457       C  0.90308813  0.86648646  0.48286004     0.05100
C1458       C  0.89714507  0.89696877  0.48880810    -0.09400
C1459       C  0.86788541  0.90580565  0.49661321     0.05900
C1460       C  0.84508153  0.88480282  0.49727462    -0.13800
Br1461     Br  0.84804374  0.84062229  0.56027904    -0.05800
Br1462     Br  0.76716829  0.78147269  0.45123945    -0.00200
Br1463     Br  0.94183863  0.85203077  0.47116780     0.00200
Br1464     Br  0.80478903  0.89663614  0.50591522    -0.04200
Br1465     Br  0.79972557  0.78651739  0.57515139     0.00300
Br1466     Br  0.81685154  0.83450460  0.43590951    -0.03500
Br1467     Br  0.88850637  0.80362575  0.48060512    -0.04300
Br1468     Br  0.85833833  0.94550713  0.51003419    -0.00400
C1469       C  0.78468945  0.18704657  0.45491916     0.01100
C1470       C  0.80856156  0.19579261  0.43654750     0.03900
C1471       C  0.83284956  0.17670924  0.43272719    -0.12200
C1472       C  0.83314738  0.14918834  0.44730131     0.23200
C1473       C  0.80748039  0.13842387  0.46115009    -0.12700
C1474       C  0.78309430  0.15725466  0.46500482     0.04600
C1475       C  0.86093137  0.13259365  0.45108229     0.27000
C1476       C  0.86827753  0.11011430  0.43095393    -0.13400
C1477       C  0.89147657  0.09059474  0.43762619     0.05100
C1478       C  0.90668686  0.09291826  0.46488232    -0.09400
C1479       C  0.90065676  0.11674774  0.48414324     0.05900
C1480       C  0.87779657  0.13673998  0.47711672    -0.13800
Br1481     Br  0.80683597  0.09834607  0.47664254    -0.05800
Br1482     Br  0.80870564  0.23426969  0.41759509    -0.00200
Br1483     Br  0.90291964  0.06143384  0.40881124     0.00200
Br1484     Br  0.86836556  0.16887619  0.50382005    -0.04200
Br1485     Br  0.74970178  0.14211721  0.48696949     0.00300
Br1486     Br  0.86616907  0.18833111  0.40864116    -0.03500
Br1487     Br  0.84532109  0.10524669  0.39516435    -0.04300
Br1488     Br  0.92233671  0.12095663  0.52084456    -0.00400
C1489       C  0.10037502  0.08550664  0.50175801     0.01100
C1490       C  0.12503326  0.07900826  0.52033353     0.03900
C1491       C  0.14509089  0.10156795  0.52785429    -0.12200
C1492       C  0.14214278  0.12981349  0.51511179     0.23200
C1493       C  0.11839476  0.13628625  0.49603235    -0.12700
C1494       C  0.09732330  0.11439047  0.48956434     0.04600
C1495       C  0.16675802  0.15098176  0.51733034     0.27000
C1496       C  0.16634182  0.17382244  0.53857756    -0.13400
C1497       C  0.18885765  0.19529058  0.53847876     0.05100
C1498       C  0.21100315  0.19433834  0.51650476    -0.09400
C1499       C  0.21167974  0.17099613  0.49564163     0.05900
C1500       C  0.18986957  0.14900127  0.49651221    -0.13800
Br1501     Br  0.11592058  0.17489671  0.47739805    -0.05800
Br1502     Br  0.13337028  0.03938657  0.53461321    -0.00200
Br1503     Br  0.18962893  0.22583909  0.56843406     0.00200
Br1504     Br  0.19070581  0.11674980  0.46821401    -0.04200
Br1505     Br  0.06622665  0.12387530  0.46147146     0.00300
Br1506     Br  0.17761669  0.09387154  0.55476024    -0.03500
Br1507     Br  0.13439782  0.17615660  0.56687457    -0.04300
Br1508     Br  0.24053001  0.17028563  0.46392856    -0.00400
C1509       C  0.00761347  0.57846386  0.09714997     0.01100
C1510       C  0.02766066  0.60260378  0.09725154     0.03900
C1511       C  0.02684115  0.62388520  0.12016471    -0.12200
C1512       C  0.00556455  0.62175554  0.14289500     0.23200
C1513       C  0.98609466  0.59723860  0.14341477    -0.12700
C1514       C  0.98716314  0.57562365  0.12074189     0.04600
C1515       C  0.00191610  0.64646960  0.16474139     0.27000
C1516       C  0.01974054  0.64808696  0.19042834    -0.13400
C1517       C  0.01423270  0.67008622  0.21208428     0.05100
C1518       C  0.99067991  0.69039144  0.20839682    -0.09400
C1519       C  0.97390379  0.68964862  0.18197913     0.05900
C1520       C  0.97973848  0.66805918  0.16009447    -0.13800
Br1521     Br  0.95723949  0.59391779  0.17484467    -0.05800
Br1522     Br  0.05644345  0.60688922  0.06596301    -0.00200
Br1523     Br  0.03734559  0.67094349  0.24806577     0.00200
Br1524     Br  0.95657443  0.66718565  0.12407944    -0.04200
Br1525     Br  0.95891327  0.54352730  0.12099113     0.00300
Br1526     Br  0.05442794  0.65657152  0.12010687    -0.03500
Br1527     Br  0.05062010  0.61913756  0.19662366    -0.04300
Br1528     Br  0.94181451  0.71738604  0.17653495    -0.00400
C1529       C  0.99370624  0.76683909  0.28977113     0.01100
C1530       C  0.00085945  0.76332571  0.32020594     0.03900
C1531       C  0.00554510  0.78831890  0.33845381    -0.12200
C1532       C  0.00287267  0.81721075  0.32674166     0.23200
C1533       C  0.99844887  0.82075115  0.29587373    -0.12700
C1534       C  0.99390568  0.79566285  0.27743903     0.04600
C1535       C  0.00194152  0.84326573  0.34755553     0.27000
C1536       C  0.97448421  0.85304880  0.35905151    -0.13400
C1537       C  0.97344316  0.87517515  0.38132199     0.05100
C1538       C  0.99989614  0.88773996  0.39239607    -0.09400
C1539       C  0.02724311  0.87851182  0.38036318     0.05900
C1540       C  0.02827859  0.85651221  0.35801563    -0.13800
Br1541     Br  0.99738363  0.86011248  0.27921011    -0.05800
Br1542     Br  0.00336327  0.72409032  0.33745010    -0.00200
Br1543     Br  0.93574389  0.88846697  0.39644844     0.00200
Br1544     Br  0.06581960  0.84432664  0.34178298    -0.04200
Br1545     Br  0.98541993  0.80095216  0.23585445     0.00300
Br1546     Br  0.01432592  0.78310569  0.38007393    -0.03500
Br1547     Br  0.93825373  0.83578447  0.34424715    -0.04300
Br1548     Br  0.06344681  0.89573745  0.39516232    -0.00400
C1549       C  0.99572042  0.28845662  0.77071201     0.01100
C1550       C  0.99830038  0.28099864  0.80095134     0.03900
C1551       C  0.99531285  0.30318484  0.82288755    -0.12200
C1552       C  0.98938939  0.33288851  0.81464133     0.23200
C1553       C  0.98451146  0.33982821  0.78454393    -0.12700
C1554       C  0.98753115  0.31769611  0.76271011     0.04600
C1555       C  0.99202679  0.35735012  0.83681492     0.27000
C1556       C  0.96665746  0.37065226  0.84938339    -0.13400
C1557       C  0.96972506  0.39376294  0.87030424     0.05100
C1558       C  0.99808693  0.40424538  0.87823335    -0.09400
C1559       C  0.02323004  0.39196923  0.86446083     0.05900
C1560       C  0.02032967  0.36831102  0.84426789    -0.13800
Br1561     Br  0.97675109  0.38038715  0.77296514    -0.05800
Br1562     Br  0.00906086  0.24107026  0.81196743    -0.00200
Br1563     Br  0.93509110  0.41082588  0.88845423     0.00200
Br1564     Br  0.05525134  0.35073756  0.82680278    -0.04200
Br1565     Br  0.98263981  0.32799260  0.72138941     0.00300
Br1566     Br  0.00228671  0.29357891  0.86400908    -0.03500
Br1567     Br  0.92778596  0.35713741  0.83796891    -0.04300
Br1568     Br  0.06163380  0.40807610  0.87273742    -0.00400
C1569       C  0.99901650  0.20117826  0.70181746     0.01100
C1570       C  0.97745583  0.20453055  0.67940498     0.03900
C1571       C  0.97392549  0.18239183  0.65751194    -0.12200
C1572       C  0.99164509  0.15656577  0.65818629     0.23200
C1573       C  0.01092690  0.15190012  0.68241860    -0.12700
C1574       C  0.01485128  0.17429205  0.70391901     0.04600
C1575       C  0.99128084  0.13511775  0.63279594     0.27000
C1576       C  0.97097471  0.11147239  0.63233441    -0.13400
C1577       C  0.97174450  0.09034349  0.60917535     0.05100
C1578       C  0.99259883  0.09291581  0.58565648    -0.09400
C1579       C  0.01287666  0.11685718  0.58624545     0.05900
C1580       C  0.01202352  0.13787614  0.60952526    -0.13800
Br1581     Br  0.03295261  0.11533871  0.68534981    -0.05800
Br1582     Br  0.95466245  0.24069477  0.67729927    -0.00200
Br1583     Br  0.94395049  0.05789258  0.61038992     0.00200
Br1584     Br  0.03960205  0.17054004  0.60981662    -0.04200
Br1585     Br  0.04343091  0.16923205  0.73535602     0.00300
Br1586     Br  0.94608733  0.18811885  0.62557947    -0.03500
Br1587     Br  0.94214368  0.10817948  0.66382311    -0.04300
Br1588     Br  0.04378225  0.11966376  0.55679660    -0.00400
C1589       C  0.98375742  0.72473724  0.80110442     0.01100
C1590       C  0.00488974  0.72657355  0.82403031     0.03900
C1591       C  0.00522415  0.70513266  0.84692441    -0.12200
C1592       C  0.98449262  0.68171010  0.84681258     0.23200
C1593       C  0.96134264  0.68187273  0.82586580    -0.12700
C1594       C  0.96102439  0.70323528  0.80303928     0.04600
C1595       C  0.98834865  0.65546936  0.86668541     0.27000
C1596       C  0.00574651  0.63120718  0.85732757    -0.13400
C1597       C  0.00839065  0.60568991  0.87533219     0.05100
C1598       C  0.99214140  0.60336446  0.90210326    -0.09400
C1599       C  0.97415804  0.62762683  0.91098301     0.05900
C1600       C  0.97315476  0.65383521  0.89384747    -0.13800
Br1601     Br  0.93145923  0.65125850  0.82715600    -0.05800
Br1602     Br  0.03578614  0.75595297  0.82160134    -0.00200
Br1603     Br  0.03576816  0.57502508  0.86372201     0.00200
Br1604     Br  0.95084485  0.68776009  0.90731497    -0.04200
Br1605     Br  0.93166172  0.70061568  0.77196906     0.00300
Br1606     Br  0.03520616  0.70652636  0.87731719    -0.03500
Br1607     Br  0.02565444  0.63287582  0.81941208    -0.04300
Br1608     Br  0.94889469  0.62465314  0.94540344    -0.00400
C1609       C  0.98964359  0.89881996  0.59372901     0.01100
C1610       C  0.98039641  0.90921085  0.62230093     0.03900
C1611       C  0.98143929  0.89035783  0.64729120    -0.12200
C1612       C  0.99073802  0.86077005  0.64448234     0.23200
C1613       C  0.99886210  0.84982182  0.61634832    -0.12700
C1614       C  0.99846614  0.86854543  0.59112117     0.04600
C1615       C  0.99213689  0.84122480  0.67129603     0.27000
C1616       C  0.01962426  0.83501301  0.68483258    -0.13400
C1617       C  0.02130264  0.81441068  0.70834770     0.05100
C1618       C  0.99542216  0.80072156  0.71943628    -0.09400
C1619       C  0.96769143  0.80875280  0.70736669     0.05900
C1620       C  0.96607687  0.82853592  0.68308495    -0.13800
Br1621     Br  0.01105212  0.80884517  0.61265743    -0.05800
Br1622     Br  0.96503338  0.94890751  0.62881119    -0.00200
Br1623     Br  0.05951177  0.80228046  0.72333985     0.00200
Br1624     Br  0.92839376  0.83658966  0.66446264    -0.04200
Br1625     Br  0.01136360  0.85178804  0.55374917     0.00300
Br1626     Br  0.97060827  0.90513094  0.68612522    -0.03500
Br1627     Br  0.05521450  0.85353416  0.66996883    -0.04300
Br1628     Br  0.93216901  0.79005747  0.72200121    -0.00400
C1629       C  0.09230102  0.59058595  0.48466875     0.01100
C1630       C  0.10835835  0.60022979  0.50973566     0.03900
C1631       C  0.13211443  0.62041730  0.50655766    -0.12200
C1632       C  0.14210296  0.62892926  0.47806522     0.23200
C1633       C  0.12755441  0.61736765  0.45287165    -0.12700
C1634       C  0.10219109  0.59921856  0.45619096     0.04600
C1635       C  0.16617620  0.65178029  0.47488540     0.27000
C1636       C  0.15853787  0.68135455  0.46814678    -0.13400
C1637       C  0.18004290  0.70396787  0.46957962     0.05100
C1638       C  0.20944463  0.69762578  0.47873803    -0.09400
C1639       C  0.21779827  0.66763603  0.48258384     0.05900
C1640       C  0.19625175  0.64477713  0.48045061    -0.13800
Br1641     Br  0.14297595  0.62588255  0.41384606    -0.05800
Br1642     Br  0.09897357  0.58431574  0.54836704    -0.00200
Br1643     Br  0.16869395  0.74416015  0.45962552     0.00200
Br1644     Br  0.20751380  0.60389264  0.48617248    -0.04200
Br1645     Br  0.08155906  0.58538467  0.42159988     0.00300
Br1646     Br  0.15057372  0.63694931  0.54140922    -0.03500
Br1647     Br  0.11795088  0.69133451  0.45877866    -0.04300
Br1648     Br  0.25813684  0.65800325  0.49265508    -0.00400
C1649       C  0.90018235  0.38643631  0.50665358     0.01100
C1650       C  0.87694911  0.38972045  0.52761242     0.03900
C1651       C  0.85315025  0.36940956  0.52839591    -0.12200
C1652       C  0.85243053  0.34514496  0.50877940     0.23200
C1653       C  0.87611605  0.34094890  0.48876940    -0.12700
C1654       C  0.89950747  0.36179162  0.48718033     0.04600
C1655       C  0.82675883  0.32406568  0.50904645     0.27000
C1656       C  0.82725814  0.29880951  0.52754224    -0.13400
C1657       C  0.80459790  0.27732189  0.52553462     0.05100
C1658       C  0.78077540  0.28116891  0.50553491    -0.09400
C1659       C  0.77961832  0.30709668  0.48800118     0.05900
C1660       C  0.80250561  0.32843795  0.48970500    -0.13800
Br1661     Br  0.87642155  0.30628725  0.46364798    -0.05800
Br1662     Br  0.87770909  0.42155206  0.55618416    -0.00200
Br1663     Br  0.80771099  0.24094390  0.54799786     0.00200
Br1664     Br  0.80184033  0.36268084  0.46398521    -0.04200
Br1665     Br  0.92912209  0.35755685  0.45658619     0.00300
Br1666     Br  0.82135208  0.37459456  0.55655084    -0.03500
Br1667     Br  0.86020593  0.29272744  0.55413308    -0.04300
Br1668     Br  0.74828829  0.31160713  0.45923636    -0.00400
C1669       C  0.22475814  0.29676579  0.48879919     0.01100
C1670       C  0.20310976  0.29609472  0.46613713     0.03900
C1671       C  0.18079687  0.31792764  0.46488313    -0.12200
C1672       C  0.18010416  0.34089250  0.48605258     0.23200
C1673       C  0.20317715  0.34310130  0.50711184    -0.12700
C1674       C  0.22551375  0.32110171  0.50841301     0.04600
C1675       C  0.15366470  0.36080342  0.48761851     0.27000
C1676       C  0.15158810  0.38595567  0.46923870    -0.13400
C1677       C  0.12549697  0.40321285  0.46898343     0.05100
C1678       C  0.10161768  0.39652100  0.48835631    -0.09400
C1679       C  0.10364481  0.37078890  0.50634675     0.05900
C1680       C  0.12942547  0.35298312  0.50573835    -0.13800
Br1681     Br  0.20259923  0.37487335  0.53571551    -0.05800
Br1682     Br  0.20267465  0.26367827  0.43814476    -0.00200
Br1683     Br  0.12179222  0.43413981  0.43967559     0.00200
Br1684     Br  0.13158677  0.31729812  0.52943905    -0.04200
Br1685     Br  0.25540100  0.32254719  0.53890747     0.00300
Br1686     Br  0.14939521  0.31484778  0.43593459    -0.03500
Br1687     Br  0.18457459  0.39642403  0.44406393    -0.04300
Br1688     Br  0.07157987  0.35947119  0.53219022    -0.00400
C1689       C  0.76681718  0.68411820  0.52059977     0.01100
C1690       C  0.78117869  0.67127015  0.54534635     0.03900
C1691       C  0.80358321  0.64954395  0.54145200    -0.12200
C1692       C  0.81201596  0.64032072  0.51269911     0.23200
C1693       C  0.79605021  0.65141932  0.48807160    -0.12700
C1694       C  0.77378005  0.67324943  0.49202753     0.04600
C1695       C  0.83841855  0.62011710  0.50847334     0.27000
C1696       C  0.86749189  0.63139968  0.51047006    -0.13400
C1697       C  0.89246273  0.61226293  0.50912461     0.05100
C1698       C  0.88898113  0.58135952  0.50309700    -0.09400
C1699       C  0.85927638  0.57062040  0.49918333     0.05900
C1700       C  0.83454813  0.58962130  0.50320664    -0.13800
Br1701     Br  0.80608026  0.63819151  0.44864812    -0.05800
Br1702     Br  0.77177177  0.68541845  0.58454317    -0.00200
Br1703     Br  0.93078302  0.62940477  0.51771966     0.00200
Br1704     Br  0.79474995  0.57382179  0.50223340    -0.04200
Br1705     Br  0.75461139  0.69070895  0.45795471     0.00300
Br1706     Br  0.82408276  0.63349233  0.57544755    -0.03500
Br1707     Br  0.87291114  0.67366702  0.51511426    -0.04300
Br1708     Br  0.85058200  0.53027278  0.48698496    -0.00400
C1709       C  0.21952782  0.49444517  0.29686684     0.01100
C1710       C  0.20050686  0.51931423  0.29888978     0.03900
C1711       C  0.17602585  0.51904663  0.31830548    -0.12200
C1712       C  0.17056990  0.49412874  0.33640084     0.23200
C1713       C  0.19090311  0.47025047  0.33620107    -0.12700
C1714       C  0.21499621  0.47019952  0.31614543     0.04600
C1715       C  0.14431333  0.49392139  0.35669263     0.27000
C1716       C  0.14761506  0.50386436  0.38594186    -0.13400
C1717       C  0.12296413  0.50548446  0.40505857     0.05100
C1718       C  0.09441033  0.49493504  0.39582068    -0.09400
C1719       C  0.09145255  0.48466990  0.36614856     0.05900
C1720       C  0.11605129  0.48515490  0.34657731    -0.13800
Br1721     Br  0.18520475  0.43727883  0.36289344    -0.05800
Br1722     Br  0.20714203  0.55322435  0.27354039    -0.00200
Br1723     Br  0.13003266  0.52342707  0.44349182     0.00200
Br1724     Br  0.11121887  0.47394192  0.30555136    -0.04200
Br1725     Br  0.24010385  0.43572765  0.31295034     0.00300
Br1726     Br  0.14922173  0.55243434  0.31949848    -0.03500
Br1727     Br  0.18659978  0.51548347  0.39964629    -0.04300
Br1728     Br  0.05465755  0.46800900  0.35201277    -0.00400
C1729       C  0.88974275  0.48183284  0.40610351     0.01100
C1730       C  0.89009189  0.49450039  0.37722743     0.03900
C1731       C  0.86516993  0.49179088  0.35838238    -0.12200
C1732       C  0.83886939  0.47827186  0.36858622     0.23200
C1733       C  0.83796951  0.46670280  0.39756580    -0.12700
C1734       C  0.86355025  0.46696657  0.41557910     0.04600
C1735       C  0.81291019  0.47477658  0.34809896     0.27000
C1736       C  0.79471537  0.49929065  0.34097160    -0.13400
C1737       C  0.77427664  0.49748033  0.31722645     0.05100
C1738       C  0.77120547  0.47082144  0.30109238    -0.09400
C1739       C  0.78646376  0.44528280  0.31107269     0.05900
C1740       C  0.80772625  0.44735132  0.33393530    -0.13800
Br1741     Br  0.80129572  0.45064746  0.41266847    -0.05800
Br1742     Br  0.92393651  0.51649237  0.36295235    -0.00200
Br1743     Br  0.75294052  0.53240015  0.30480144     0.00200
Br1744     Br  0.83158393  0.41319394  0.34402456    -0.04200
Br1745     Br  0.86268286  0.44392933  0.45183244     0.00300
Br1746     Br  0.86712948  0.50622286  0.31806016    -0.03500
Br1747     Br  0.79924786  0.53585167  0.36268065    -0.04300
Br1748     Br  0.77936005  0.40770079  0.29187618    -0.00400
C1749       C  0.10428827  0.49486439  0.58751511     0.01100
C1750       C  0.10326070  0.50890755  0.61570000     0.03900
C1751       C  0.12844023  0.50879039  0.63453330    -0.12200
C1752       C  0.15513485  0.49515233  0.62545978     0.23200
C1753       C  0.15644368  0.48145188  0.59750636    -0.12700
C1754       C  0.13134242  0.48091939  0.57878662     0.04600
C1755       C  0.18164719  0.49448784  0.64560138     0.27000
C1756       C  0.20497125  0.51509621  0.64207637    -0.13400
C1757       C  0.22843003  0.51612666  0.66290228     0.05100
C1758       C  0.22854462  0.49701688  0.68770842    -0.09400
C1759       C  0.20654568  0.47476977  0.68967532     0.05900
C1760       C  0.18345752  0.47327902  0.66857171    -0.13800
Br1761     Br  0.19305551  0.46292886  0.58512495    -0.05800
Br1762     Br  0.06810527  0.52978921  0.62848212    -0.00200
Br1763     Br  0.25909803  0.54558790  0.65922688     0.00200
Br1764     Br  0.15332244  0.44309761  0.67190853    -0.04200
Br1765     Br  0.13467252  0.45889601  0.54207044     0.00300
Br1766     Br  0.12664612  0.52764461  0.67295735    -0.03500
Br1767     Br  0.20375872  0.54310050  0.60970685    -0.04300
Br1768     Br  0.20612649  0.44855399  0.72356067    -0.00400
C1769       C  0.90117679  0.49271684  0.60015623     0.01100
C1770       C  0.88128177  0.51696148  0.59874187     0.03900
C1771       C  0.85519904  0.51726170  0.61600242    -0.12200
C1772       C  0.84940687  0.49410632  0.63622604     0.23200
C1773       C  0.87022451  0.47079635  0.63912259    -0.12700
C1774       C  0.89575319  0.46987827  0.62088471     0.04600
C1775       C  0.82248204  0.49522555  0.65574495     0.27000
C1776       C  0.82277281  0.51279092  0.68159393    -0.13400
C1777       C  0.79858429  0.51218582  0.70135076     0.05100
C1778       C  0.77436018  0.49288131  0.69640711    -0.09400
C1779       C  0.77317225  0.47674142  0.66965541     0.05900
C1780       C  0.79699212  0.47818496  0.64920226    -0.13800
Br1781     Br  0.86366385  0.44010367  0.66821460    -0.05800
Br1782     Br  0.89061259  0.55079266  0.57435899    -0.00200
Br1783     Br  0.79960445  0.53627574  0.73678968     0.00200
Br1784     Br  0.79560343  0.45553349  0.61298742    -0.04200
Br1785     Br  0.92272961  0.43682046  0.62355283     0.00300
Br1786     Br  0.82699439  0.54919670  0.61159303    -0.03500
Br1787     Br  0.85753675  0.53576277  0.69129116    -0.04300
Br1788     Br  0.74002126  0.45090127  0.66234807    -0.00400
C1789       C  0.96270854  0.58156005  0.39990295     0.01100
C1790       C  0.97998452  0.59503059  0.37782033     0.03900
C1791       C  0.96694052  0.61543407  0.35831461    -0.12200
C1792       C  0.93627836  0.62134548  0.36012855     0.23200
C1793       C  0.91869177  0.60689809  0.38136825    -0.12700
C1794       C  0.93194234  0.58694098  0.40124566     0.04600
C1795       C  0.92305680  0.64194938  0.33853156     0.27000
C1796       C  0.92002440  0.67209746  0.34574525    -0.13400
C1797       C  0.91898067  0.69319201  0.32286593     0.05100
C1798       C  0.92473374  0.68410063  0.29332567    -0.09400
C1799       C  0.92029740  0.65374525  0.28610813     0.05900
C1800       C  0.91955920  0.63259923  0.30902729    -0.13800
Br1801     Br  0.87655063  0.61399021  0.38270634    -0.05800
Br1802     Br  0.02105450  0.58460793  0.37341983    -0.00200
Br1803     Br  0.91130089  0.73426598  0.33248294     0.00200
Br1804     Br  0.91829898  0.59064119  0.30031556    -0.04200
Br1805     Br  0.90746076  0.56508542  0.42851939     0.00300
Br1806     Br  0.99113686  0.63529943  0.32899286    -0.03500
Br1807     Br  0.92152913  0.68467120  0.38662951    -0.04300
Br1808     Br  0.91689306  0.64023399  0.24558636    -0.00400
C1809       C  0.02182380  0.39167559  0.59318547     0.01100
C1810       C  0.05238999  0.39199987  0.59958440     0.03900
C1811       C  0.06528050  0.36909571  0.61605109    -0.12200
C1812       C  0.04727764  0.34692735  0.62824391     0.23200
C1813       C  0.01661584  0.34624941  0.62186449    -0.12700
C1814       C  0.00397330  0.36842320  0.60382572     0.04600
C1815       C  0.06026375  0.32533889  0.64907484     0.27000
C1816       C  0.06474351  0.29568837  0.64037432    -0.13400
C1817       C  0.06976527  0.27405354  0.66225245     0.05100
C1818       C  0.06828940  0.28231815  0.69242522    -0.09400
C1819       C  0.07354414  0.31229498  0.69953860     0.05900
C1820       C  0.06729409  0.33411781  0.67827131    -0.13800
Br1821     Br  0.99213198  0.31473505  0.63735975    -0.05800
Br1822     Br  0.07732856  0.42296705  0.58470054    -0.00200
Br1823     Br  0.07705844  0.23342721  0.65112832     0.00200
Br1824     Br  0.06518552  0.37524809  0.69005472    -0.04200
Br1825     Br  0.96243908  0.36720631  0.59387939     0.00300
Br1826     Br  0.10782061  0.36715239  0.62077320    -0.03500
Br1827     Br  0.06156824  0.28467235  0.59916354    -0.04300
Br1828     Br  0.08613682  0.32315137  0.73895349    -0.00400
C1829       C  0.00995550  0.69761443  0.70212764     0.01100
C1830       C  0.03396442  0.67774483  0.70182346     0.03900
C1831       C  0.03497798  0.65557138  0.68010729    -0.12200
C1832       C  0.01164925  0.65333048  0.65954635     0.23200
C1833       C  0.98766239  0.67314458  0.65999666    -0.12700
C1834       C  0.98655047  0.69503490  0.68165783     0.04600
C1835       C  0.01123974  0.62960049  0.63774833     0.27000
C1836       C  0.02186610  0.63533611  0.60912657    -0.13400
C1837       C  0.01738427  0.61448202  0.58667304     0.05100
C1838       C  0.00268070  0.58747090  0.59327373    -0.09400
C1839       C  0.99149718  0.58221260  0.62218788     0.05900
C1840       C  0.99584902  0.60339380  0.64437088    -0.13800
Br1841     Br  0.95632083  0.67018574  0.63083908    -0.05800
Br1842     Br  0.06497022  0.68083531  0.73111674    -0.00200
Br1843     Br  0.03133236  0.62413180  0.54726116     0.00200
Br1844     Br  0.97900425  0.59774734  0.68345682    -0.04200
Br1845     Br  0.95182142  0.71998622  0.68438399     0.00300
Br1846     Br  0.06815202  0.62864496  0.67800608    -0.03500
Br1847     Br  0.04108708  0.67276025  0.60062811    -0.04300
Br1848     Br  0.96788555  0.54754911  0.63145669    -0.00400
C1849       C  0.01473934  0.37987618  0.07288071     0.01100
C1850       C  0.02602300  0.38086502  0.10239727     0.03900
C1851       C  0.02447992  0.35552643  0.12102658    -0.12200
C1852       C  0.01277763  0.32852864  0.11043383     0.23200
C1853       C  0.00273280  0.32693825  0.08097438    -0.12700
C1854       C  0.00272995  0.35242174  0.06264659     0.04600
C1855       C  0.00805909  0.30290628  0.13125496     0.27000
C1856       C  0.03117579  0.28288021  0.13816152    -0.13400
C1857       C  0.02779782  0.26203902  0.16153968     0.05100
C1858       C  0.00088386  0.26047982  0.17748250    -0.09400
C1859       C  0.97663216  0.27780464  0.16760814     0.05900
C1860       C  0.98041065  0.29946625  0.14533892    -0.13800
Br1861     Br  0.98807099  0.28951356  0.06610870    -0.05800
Br1862     Br  0.04413311  0.41639142  0.11814633    -0.00200
Br1863     Br  0.06083435  0.23765875  0.17333430     0.00200
Br1864     Br  0.94830096  0.32618615  0.13579437    -0.04200
Br1865     Br  0.98293849  0.34918487  0.02477633     0.00300
Br1866     Br  0.03765973  0.35775161  0.16174937    -0.03500
Br1867     Br  0.06787923  0.28523320  0.11649053    -0.04300
Br1868     Br  0.93834407  0.27297499  0.18609222    -0.00400
C1869       C  0.00965484  0.08466141  0.38351789     0.01100
C1870       C  0.99194802  0.11052703  0.38146390     0.03900
C1871       C  0.99309851  0.12856117  0.35575543    -0.12200
C1872       C  0.01179840  0.12096898  0.33179832     0.23200
C1873       C  0.02929983  0.09522989  0.33370512    -0.12700
C1874       C  0.02878341  0.07762178  0.35956576     0.04600
C1875       C  0.01454344  0.14117145  0.30555400     0.27000
C1876       C  0.99362012  0.14036661  0.28228369    -0.13400
C1877       C  0.99372406  0.16258773  0.26004562     0.05100
C1878       C  0.01493012  0.18557498  0.26080760    -0.09400
C1879       C  0.03757912  0.18448763  0.28253870     0.05900
C1880       C  0.03744056  0.16237813  0.30469130    -0.13800
Br1881     Br  0.05386941  0.08402290  0.30047754    -0.05800
Br1882     Br  0.96532690  0.12112624  0.41320471    -0.00200
Br1883     Br  0.96277368  0.16357090  0.23065148     0.00200
Br1884     Br  0.06756772  0.16226064  0.33514485    -0.04200
Br1885     Br  0.05629971  0.04513268  0.36255944     0.00300
Br1886     Br  0.96867002  0.16363471  0.35300646    -0.03500
Br1887     Br  0.96390720  0.10966362  0.28202248    -0.04300
Br1888     Br  0.06714452  0.21544667  0.28389958    -0.00400
C1889       C  0.99095034  0.38958187  0.39954432     0.01100
C1890       C  0.96805360  0.39138508  0.37825715     0.03900
C1891       C  0.96746149  0.37143041  0.35451395    -0.12200
C1892       C  0.98841027  0.34843579  0.35324622     0.23200
C1893       C  0.01019900  0.34542623  0.37537993    -0.12700
C1894       C  0.01196886  0.36645590  0.39820002     0.04600
C1895       C  0.98806651  0.32786062  0.32807823     0.27000
C1896       C  0.97049754  0.30218743  0.32933338    -0.13400
C1897       C  0.97151499  0.28170502  0.30598495     0.05100
C1898       C  0.98973233  0.28735000  0.28109674    -0.09400
C1899       C  0.00625979  0.31394856  0.27936968     0.05900
C1900       C  0.00564241  0.33398237  0.30310199    -0.13800
Br1901     Br  0.03795017  0.31284374  0.37386808    -0.05800
Br1902     Br  0.93643684  0.41992981  0.38223391    -0.00200
Br1903     Br  0.94770724  0.24612201  0.30834788     0.00200
Br1904     Br  0.02976012  0.36940014  0.30215219    -0.04200
Br1905     Br  0.04428680  0.36448475  0.42626904     0.00300
Br1906     Br  0.93856813  0.37594513  0.32318867    -0.03500
Br1907     Br  0.94556846  0.29504328  0.36343151    -0.04300
Br1908     Br  0.03161809  0.32248216  0.24584975    -0.00400
loop_ 
_geom_bond_atom_site_label_1 
_geom_bond_atom_site_label_2 
_geom_bond_distance 
_geom_bond_site_symmetry_2 
_ccdc_geom_bond_type 
C1            N2   1.356   1_455  A
C1            N6   1.377       .  A
C1         C1858   1.494       .  S
N2            C3   1.347       .  A
C3            N4   1.344   1_655  A
C3         C1898   1.467       .  S
N4            C5   1.350       .  A
C5            N6   1.376       .  A
C5         C1878   1.486       .  S
O7          Zr43   2.419       .  S
O7           C18   1.289       .  A
O8          Zr42   2.444       .  S
O8           C19   1.293       .  A
O9          Zr15   2.474   1_455  S
O9           C20   1.298       .  A
O10         Zr15   2.475       .  S
O10          C21   1.299       .  A
O11         Zr45   2.437       .  S
O11          C21   1.291       .  A
O12         Zr44   2.438       .  S
O12          C20   1.291       .  A
O13         Zr15   2.429   1_455  S
O13          C19   1.290       .  A
O14         Zr15   2.428       .  S
O14          C18   1.290       .  A
Zr15         O16   2.351       .  S
Zr15         O17   2.350   1_655  S
Zr15         O25   2.340       .  S
Zr15         O23   2.345   1_655  S
O16         Zr42   2.350   1_655  S
O16         Zr45   2.345       .  S
O17         Zr43   2.341   1_455  S
O17         Zr44   2.340       .  S
C18        C1889   1.464       .  S
C19        C1809   1.467       .  S
C20        C1678   1.501       .  S
C21        C1649   1.500       .  S
H22          O23   0.962       .  S
O23         Zr42   2.337       .  S
O23         Zr44   2.328       .  S
H24          O25   0.965       .  S
O25         Zr43   2.356       .  S
O25         Zr45   2.341       .  S
O26         Zr42   2.410       .  S
O26          C49   1.287   1_455  A
O27         Zr43   2.422       .  S
O27          C50   1.289       .  A
O28         Zr44   2.432       .  S
O28          C51   1.289       .  A
O29         Zr45   2.430       .  S
O29          C52   1.290       .  A
O30         Zr45   2.434       .  S
O30          C53   1.290       .  A
O31         Zr44   2.399       .  S
O31          C54   1.281       .  A
O32         Zr46   2.496   1_455  S
O32          C55   1.303       .  A
O33         Zr46   2.488       .  S
O33          C56   1.300       .  A
O34         Zr44   2.430       .  S
O34          C55   1.289       .  A
O35         Zr45   2.433       .  S
O35          C56   1.288       .  A
O36         Zr42   2.487       .  S
O36          C51   1.301       .  A
O37         Zr43   2.506   1_455  S
O37          C54   1.304       .  A
O38         Zr43   2.474       .  S
O38          C53   1.298       .  A
O39         Zr42   2.489   1_655  S
O39          C52   1.301       .  A
O40         Zr46   2.419       .  S
O40          C49   1.288       .  A
O41         Zr46   2.434       .  S
O41          C50   1.291       .  A
Zr42         O48   2.351       .  S
Zr42         O60   2.351   1_455  S
Zr43         O47   2.342       .  S
Zr43         O58   2.344   1_655  S
Zr44         O48   2.328       .  S
Zr44         O58   2.348       .  S
Zr45         O47   2.331       .  S
Zr45         O60   2.332       .  S
Zr46         O47   2.330       .  S
Zr46         O48   2.352   1_655  S
Zr46         O60   2.349       .  S
Zr46         O58   2.347   1_655  S
C49        C1838   1.465   1_655  S
C50        C1789   1.462       .  S
C51        C1749   1.512       .  S
C52        C1769   1.495       .  S
C53        C1729   1.506       .  S
C54        C1718   1.516       .  S
C55        C1629   1.494       .  S
C56        C1698   1.530       .  S
H57          O58   0.968       .  S
H59          O60   0.966       .  S
C61          N62   1.351   1_655  A
C61          N66   1.374       .  A
C61        C1589   1.477       .  S
N62          C63   1.342       .  A
C63          N64   1.344       .  A
C63        C1829   1.444       .  S
N64          C65   1.349   1_455  A
C65          N66   1.374       .  A
C65        C1618   1.479       .  S
C67          N68   1.353       .  A
C67          N72   1.368   1_455  A
C67        C1549   1.482   1_455  S
N68          C69   1.352       .  A
C69          N70   1.351       .  A
C69        C1818   1.487       .  S
N70          C71   1.355       .  A
C71          N72   1.369   1_455  A
C71        C1569   1.480   1_455  S
C73          N74   1.371       .  A
C73          N78   1.355       .  A
C73        C1518   1.484       .  S
N74          C75   1.370       .  A
C75          N76   1.355       .  A
C75        C1529   1.495       .  S
N76          C77   1.353       .  A
C77          N78   1.352       .  A
C77        C1798   1.495       .  S
O79        Zr115   2.439   1_545  S
O79          C90   1.292       .  A
O80        Zr114   2.431   1_545  S
O80          C91   1.289       .  A
O81         Zr87   2.425   1_655  S
O81          C92   1.289       .  A
O82         Zr87   2.433       .  S
O82          C93   1.291       .  A
O83        Zr117   2.421   1_545  S
O83          C93   1.288       .  A
O84        Zr116   2.437   1_545  S
O84          C92   1.292       .  A
O85         Zr87   2.489   1_655  S
O85          C91   1.302       .  A
O86         Zr87   2.475       .  S
O86          C90   1.300       .  A
Zr87         O88   2.333       .  S
Zr87         O89   2.349   1_455  S
Zr87         O97   2.359       .  S
Zr87         O95   2.351   1_455  S
O88        Zr114   2.343   1_445  S
O88        Zr117   2.357   1_545  S
O89        Zr115   2.335   1_645  S
O89        Zr116   2.328   1_545  S
C90        C1869   1.499       .  S
C91        C1578   1.503       .  S
C92        C1478   1.468       .  S
C93        C1489   1.482       .  S
H94          O95   0.964       .  S
O95        Zr114   2.346   1_545  S
O95        Zr116   2.352   1_545  S
H96          O97   0.965       .  S
O97        Zr115   2.355   1_545  S
O97        Zr117   2.342   1_545  S
O98        Zr114   2.419       .  S
O98         C121   1.285       .  A
O99        Zr115   2.455       .  S
O99         C122   1.294   1_455  A
O100       Zr116   2.462       .  S
O100        C123   1.296       .  A
O101       Zr117   2.506       .  S
O101        C124   1.305       .  A
O102       Zr117   2.532       .  S
O102        C125   1.309       .  A
O103       Zr116   2.467       .  S
O103        C126   1.297       .  A
O104       Zr118   2.417       .  S
O104        C127   1.286       .  A
O105       Zr118   2.446   1_455  S
O105        C128   1.294       .  A
O106       Zr116   2.421       .  S
O106        C127   1.288       .  A
O107       Zr117   2.419       .  S
O107        C128   1.288       .  A
O108       Zr114   2.463       .  S
O108        C123   1.296       .  A
O109       Zr115   2.441   1_655  S
O109        C126   1.291       .  A
O110       Zr115   2.419       .  S
O110        C125   1.285       .  A
O111       Zr114   2.433   1_455  S
O111        C124   1.290       .  A
O112       Zr118   2.474       .  S
O112        C121   1.297       .  A
O113       Zr118   2.473       .  S
O113        C122   1.298       .  A
Zr114       O120   2.329       .  S
Zr114       O132   2.346   1_655  S
Zr115       O119   2.347       .  S
Zr115       O130   2.332   1_455  S
Zr116       O120   2.344       .  S
Zr116       O130   2.342       .  S
Zr117       O119   2.348       .  S
Zr117       O132   2.352       .  S
Zr118       O119   2.352   1_655  S
Zr118       O120   2.341       .  S
Zr118       O132   2.333   1_655  S
Zr118       O130   2.351       .  S
C121       C1609   1.512       .  S
C122       C1538   1.493       .  S
C123       C1358   1.496       .  S
C124       C1369   1.497       .  S
C125       C1398   1.539       .  S
C126       C1409   1.507       .  S
C127       C1458   1.481       .  S
C128       C1429   1.479       .  S
H129        O130   0.964       .  S
H131        O132   0.964       .  S
C133        N134   1.354       .  A
C133        N138   1.372       .  A
C133       C1669   1.483       .  S
N134        C135   1.348       .  A
C135        N136   1.346       .  A
C135       C1498   1.462       .  S
N136        C137   1.352       .  A
C137        N138   1.372       .  A
C137       C1329   1.479       .  S
C139        N140   1.355       .  A
C139        N144   1.373       .  A
C139       C1309   1.488       .  S
N140        C141   1.348       .  A
C141        N142   1.349       .  A
C141       C1469   1.477       .  S
N142        C143   1.351       .  A
C143        N144   1.373       .  A
C143       C1658   1.483       .  S
C145        N146   1.352       .  A
C145        N150   1.381       .  A
C145       C1289   1.494       .  S
N146        C147   1.345       .  A
C147        N148   1.346       .  A
C147       C1449   1.450       .  S
N148        C149   1.352       .  A
C149        N150   1.381       .  A
C149       C1689   1.494       .  S
C151        N152   1.356       .  A
C151        N156   1.376       .  A
C151       C1638   1.499       .  S
N152        C153   1.350       .  A
C153        N154   1.345       .  A
C153       C1438   1.478       .  S
N154        C155   1.352       .  A
C155        N156   1.376       .  A
C155       C1269   1.487       .  S
C157        N158   1.374       .  A
C157        N162   1.353       .  A
C157       C1229   1.492       .  S
N158        C159   1.373       .  A
C159        N160   1.351       .  A
C159       C1418   1.478       .  S
N160        C161   1.345       .  A
C161        N162   1.346       .  A
C161       C1258   1.468       .  S
O163       Zr199   2.421       .  S
O163        C174   1.286       .  A
O164       Zr198   2.440       .  S
O164        C175   1.292       .  A
O165       Zr171   2.432       .  S
O165        C176   1.293       .  A
O166       Zr171   2.450   1_545  S
O166        C177   1.294       .  A
O167       Zr201   2.430   1_545  S
O167        C177   1.290       .  A
O168       Zr200   2.408       .  S
O168        C176   1.286       .  A
O169       Zr171   2.491       .  S
O169        C175   1.302       .  A
O170       Zr171   2.494   1_545  S
O170        C174   1.301       .  A
Zr171       O172   2.359       .  S
Zr171       O173   2.347   1_565  S
Zr171       O181   2.341   1_565  S
Zr171       O179   2.351       .  S
O172       Zr198   2.357       .  S
O172       Zr201   2.352       .  S
O173       Zr199   2.329       .  S
O173       Zr200   2.341   1_545  S
C174       C1338   1.522       .  S
C175       C1278   1.502       .  S
C176       C1178   1.467       .  S
C177       C1218   1.471       .  S
H178        O179   0.965       .  S
O179       Zr198   2.333       .  S
O179       Zr200   2.346       .  S
H180        O181   0.965       .  S
O181       Zr199   2.336       .  S
O181       Zr201   2.344   1_545  S
O182       Zr198   2.453       .  S
O182        C205   1.293       .  A
O183       Zr199   2.413       .  S
O183        C206   1.286       .  A
O184       Zr200   2.474       .  S
O184        C207   1.298       .  A
O185       Zr201   2.488       .  S
O185        C208   1.301       .  A
O186       Zr201   2.477   1_545  S
O186        C209   1.298       .  A
O187       Zr200   2.489   1_545  S
O187        C210   1.300       .  A
O188       Zr202   2.429       .  S
O188        C211   1.290       .  A
O189       Zr202   2.432       .  S
O189        C212   1.293       .  A
O190       Zr200   2.417       .  S
O190        C211   1.289       .  A
O191       Zr201   2.413       .  S
O191        C212   1.285       .  A
O192       Zr198   2.437       .  S
O192        C207   1.290       .  A
O193       Zr199   2.444       .  S
O193        C210   1.292       .  A
O194       Zr199   2.433       .  S
O194        C209   1.290       .  A
O195       Zr198   2.427       .  S
O195        C208   1.288       .  A
O196       Zr202   2.481       .  S
O196        C205   1.300       .  A
O197       Zr202   2.508   1_545  S
O197        C206   1.305       .  A
Zr198       O204   2.333       .  S
Zr198       O216   2.342       .  S
Zr199       O203   2.336       .  S
Zr199       O214   2.342       .  S
Zr200       O204   2.335       .  S
Zr200       O214   2.353   1_565  S
Zr201       O203   2.350   1_565  S
Zr201       O216   2.346       .  S
Zr202       O203   2.333   1_565  S
Zr202       O204   2.348       .  S
Zr202       O216   2.351       .  S
Zr202       O214   2.359   1_565  S
C205       C1298   1.520       .  S
C206       C1318   1.516       .  S
C207       C1109   1.505       .  S
C208       C1149   1.488       .  S
C209       C1129   1.505       .  S
C210       C1098   1.503       .  S
C211       C1249   1.457       .  S
C212       C1189   1.476       .  S
H213        O214   0.966       .  S
H215        O216   0.965       .  S
C217        N218   1.370       .  A
C217        N222   1.354       .  A
C217       C1078   1.481       .  S
N218        C219   1.369       .  A
C219        N220   1.355       .  A
C219       C1378   1.485   1_545  S
N220        C221   1.352       .  A
C221        N222   1.351       .  A
C221       C1209   1.495       .  S
C223        N224   1.348       .  A
C223        N228   1.377       .  A
C223       C1049   1.485       .  S
N224        C225   1.340       .  A
C225        N226   1.353       .  A
C225       C1198   1.471       .  S
N226        C227   1.361       .  A
C227        N228   1.381       .  A
C227       C1349   1.527       .  S
C229        N230   1.349       .  A
C229        N234   1.381       .  A
C229       C1029   1.493       .  S
N230        C231   1.342       .  A
C231        N232   1.349   1_545  A
C231       C1169   1.451   1_545  S
N232        C233   1.355       .  A
C233        N234   1.382   1_565  A
C233       C1389   1.501       .  S
O235       Zr271   2.429   1_554  S
O235        C246   1.290       .  A
O236       Zr270   2.437   1_554  S
O236        C247   1.291       .  A
O237       Zr243   2.417   1_545  S
O237        C248   1.288       .  A
O238       Zr243   2.402       .  S
O238        C249   1.286       .  A
O239       Zr273   2.453   1_554  S
O239        C249   1.295       .  A
O240       Zr272   2.409   1_554  S
O240        C248   1.287       .  A
O241       Zr243   2.485       .  S
O241        C247   1.301       .  A
O242       Zr243   2.476       .  S
O242        C246   1.299       .  A
Zr243       O244   2.345       .  S
Zr243       O245   2.339   1_565  S
Zr243       O253   2.355       .  S
Zr243       O251   2.335   1_565  S
O244       Zr270   2.339   1_554  S
O244       Zr273   2.353   1_554  S
O245       Zr271   2.339   1_544  S
O245       Zr272   2.331   1_554  S
C246       C1238   1.497       .  S
C247       C1038   1.511       .  S
C248       C1009   1.455       .  S
C249        C998   1.465       .  S
H250        O251   0.968       .  S
O251       Zr270   2.342   1_544  S
O251       Zr272   2.333   1_554  S
H252        O253   0.968       .  S
O253       Zr271   2.335   1_554  S
O253       Zr273   2.341   1_554  S
O254       Zr270   2.424       .  S
O254        C277   1.289       .  A
O255       Zr271   2.436       .  S
O255        C278   1.291       .  A
O256       Zr272   2.458       .  S
O256        C279   1.296       .  A
O257       Zr273   2.467       .  S
O257        C280   1.298       .  A
O258       Zr273   2.495       .  S
O258        C281   1.302       .  A
O259       Zr272   2.476       .  S
O259        C282   1.299       .  A
O260       Zr274   2.442   1_545  S
O260        C283   1.293       .  A
O261       Zr274   2.431       .  S
O261        C284   1.291       .  A
O262       Zr272   2.382       .  S
O262        C283   1.282       .  A
O263       Zr273   2.440       .  S
O263        C284   1.293       .  A
O264       Zr270   2.441   1_545  S
O264        C279   1.292       .  A
O265       Zr271   2.414   1_545  S
O265        C282   1.286       .  A
O266       Zr271   2.426       .  S
O266        C281   1.287       .  A
O267       Zr270   2.431       .  S
O267        C280   1.291       .  A
O268       Zr274   2.473       .  S
O268        C277   1.298       .  A
O269       Zr274   2.466       .  S
O269        C278   1.296       .  A
Zr270       O276   2.333   1_565  S
Zr270       O288   2.350       .  S
Zr271       O275   2.327       .  S
Zr271       O286   2.335   1_565  S
Zr272       O276   2.343       .  S
Zr272       O286   2.337       .  S
Zr273       O275   2.339       .  S
Zr273       O288   2.364       .  S
Zr274       O275   2.347       .  S
Zr274       O276   2.335   1_565  S
Zr274       O288   2.355       .  S
Zr274       O286   2.345   1_565  S
C277       C1069   1.492       .  S
C278       C1058   1.503   1_565  S
C279        C938   1.488       .  S
C280        C889   1.494       .  S
C281        C909   1.521       .  S
C282        C869   1.499       .  S
C283        C949   1.452       .  S
C284        C969   1.466       .  S
H285        O286   0.956       .  S
H287        O288   0.961       .  S
C289        N290   1.384       .  A
C289        N294   1.352       .  A
C289       C1089   1.509       .  S
N290        C291   1.385       .  A
C291        N292   1.350       .  A
C291        C858   1.491       .  S
N292        C293   1.341       .  A
C293        N294   1.343       .  A
C293       C1018   1.456       .  S
C295        N296   1.375       .  A
C295        N300   1.354       .  A
C295        C838   1.487       .  S
N296        C297   1.375       .  A
C297        N298   1.355       .  A
C297       C1118   1.491       .  S
N298        C299   1.348       .  A
C299        N300   1.349       .  A
C299        C989   1.474       .  S
C301        N302   1.351       .  A
C301        N306   1.367       .  A
C301        C809   1.476       .  S
N302        C303   1.347       .  A
C303        N304   1.356       .  A
C303        C978   1.491       .  S
N304        C305   1.359       .  A
C305        N306   1.367       .  A
C305       C1158   1.482       .  S
C307        N308   1.349       .  A
C307        N312   1.374       .  A
C307       C1138   1.480       .  S
N308        C309   1.344       .  A
C309        N310   1.344       .  A
C309        C958   1.464       .  S
N310        C311   1.351       .  A
C311        N312   1.375       .  A
C311        C798   1.478       .  S
O313       Zr349   2.451   1_554  S
O313        C324   1.293       .  A
O314       Zr348   2.446   1_554  S
O314        C325   1.293       .  A
O315       Zr321   2.427       .  S
O315        C326   1.291       .  A
O316       Zr321   2.427   1_655  S
O316        C327   1.290       .  A
O317       Zr351   2.413   1_554  S
O317        C327   1.288       .  A
O318       Zr350   2.408   1_554  S
O318        C326   1.286       .  A
O319       Zr321   2.457       .  S
O319        C325   1.295       .  A
O320       Zr321   2.468       .  S
O320        C324   1.296       .  A
Zr321       O322   2.344   1_455  S
Zr321       O323   2.345       .  S
Zr321       O331   2.337   1_455  S
Zr321       O329   2.347       .  S
O322       Zr348   2.338   1_654  S
O322       Zr351   2.344   1_554  S
O323       Zr349   2.330   1_554  S
O323       Zr350   2.351   1_554  S
C324       C1849   1.516       .  S
C325       C1509   1.492       .  S
C326        C749   1.459       .  S
C327        C769   1.460       .  S
H328        O329   0.967       .  S
O329       Zr348   2.334   1_554  S
O329       Zr350   2.348   1_554  S
H330        O331   0.965       .  S
O331       Zr349   2.346   1_654  S
O331       Zr351   2.357   1_554  S
O332       Zr348   2.436   1_655  S
O332        C355   1.291       .  A
O333       Zr349   2.442       .  S
O333        C356   1.292       .  A
O334       Zr350   2.458       .  S
O334        C357   1.296       .  A
O335       Zr351   2.508       .  S
O335        C358   1.305   1_556  A
O336       Zr351   2.497       .  S
O336        C359   1.303       .  A
O337       Zr350   2.454       .  S
O337        C360   1.295       .  A
O338       Zr352   2.401       .  S
O338        C361   1.284       .  A
O339       Zr352   2.405   1_655  S
O339        C362   1.284       .  A
O340       Zr350   2.443       .  S
O340        C361   1.293       .  A
O341       Zr351   2.435       .  S
O341        C362   1.290       .  A
O342       Zr348   2.438       .  S
O342        C357   1.291       .  A
O343       Zr349   2.445       .  S
O343        C360   1.293       .  A
O344       Zr349   2.435   1_655  S
O344        C359   1.289       .  A
O345       Zr348   2.417   1_654  S
O345        C358   1.288       .  A
O346       Zr352   2.468   1_655  S
O346        C355   1.298       .  A
O347       Zr352   2.465       .  S
O347        C356   1.296       .  A
Zr348       O354   2.332       .  S
Zr348       O366   2.355   1_455  S
Zr349       O353   2.339   1_455  S
Zr349       O364   2.351       .  S
Zr350       O354   2.328       .  S
Zr350       O364   2.342       .  S
Zr351       O353   2.334       .  S
Zr351       O366   2.343       .  S
Zr352       O353   2.327   1_455  S
Zr352       O354   2.335       .  S
Zr352       O366   2.345   1_455  S
Zr352       O364   2.348       .  S
C355       C1598   1.496       .  S
C356       C1558   1.485   1_455  S
C357        C669   1.488       .  S
C358        C629   1.513       .  S
C359        C658   1.523       .  S
C360        C689   1.484       .  S
C361        C729   1.476       .  S
C362        C709   1.487       .  S
H363        O364   0.966       .  S
H365        O366   0.968       .  S
C367        N368   1.355       .  A
C367        N372   1.374       .  A
C367       C1738   1.489       .  S
N368        C369   1.349       .  A
C369        N370   1.344       .  A
C369        C778   1.465       .  S
N370        C371   1.351       .  A
C371        N372   1.374       .  A
C371        C618   1.482       .  S
C373        N374   1.375       .  A
C373        N378   1.346       .  A
C373        C598   1.478       .  S
N374        C375   1.377       .  A
C375        N376   1.353       .  A
C375       C1709   1.483       .  S
N376        C377   1.345       .  A
C377        N378   1.339       .  A
C377        C758   1.449       .  S
C379        N380   1.353       .  A
C379        N384   1.378       .  A
C379        C578   1.494       .  S
N380        C381   1.348       .  A
C381        N382   1.344       .  A
C381        C738   1.459       .  S
N382        C383   1.349       .  A
C383        N384   1.377       .  A
C383       C1758   1.485       .  S
C385        N386   1.375       .  A
C385        N390   1.351       .  A
C385       C1778   1.489       .  S
N386        C387   1.377       .  A
C387        N388   1.357       .  A
C387        C549   1.488       .  S
N388        C389   1.350       .  A
C389        N390   1.345       .  A
C389        C718   1.461       .  S
C391        N392   1.366       .  A
C391        N396   1.351   1_556  A
C391        C698   1.480       .  S
N392        C393   1.368       .  A
C393        N394   1.358   1_556  A
C393        C929   1.477       .  S
N394        C395   1.354       .  A
C395        N396   1.349       .  A
C395        C529   1.491       .  S
O397       Zr433   2.437       .  S
O397        C408   1.291       .  A
O398       Zr432   2.393       .  S
O398        C409   1.280       .  A
O399       Zr405   2.432   1_554  S
O399        C410   1.291       .  A
O400       Zr405   2.409       .  S
O400        C411   1.286       .  A
O401       Zr435   2.438       .  S
O401        C411   1.292       .  A
O402       Zr434   2.426       .  S
O402        C410   1.290       .  A
O403       Zr405   2.523       .  S
O403        C409   1.307       .  A
O404       Zr405   2.505   1_554  S
O404        C408   1.304       .  A
Zr405       O406   2.341       .  S
Zr405       O407   2.349   1_556  S
Zr405       O415   2.357   1_556  S
Zr405       O413   2.351       .  S
O406       Zr432   2.326       .  S
O406       Zr435   2.339       .  S
O407       Zr433   2.337       .  S
O407       Zr434   2.350       .  S
C408        C849   1.519       .  S
C409        C789   1.525       .  S
C410        C538   1.459       .  S
C411        C478   1.455       .  S
H412        O413   0.966       .  S
O413       Zr432   2.348       .  S
O413       Zr434   2.358   1_556  S
H414        O415   0.966       .  S
O415       Zr433   2.351       .  S
O415       Zr435   2.346   1_554  S
O416       Zr432   2.419       .  S
O416        C439   1.286       .  A
O417       Zr433   2.446       .  S
O417        C440   1.292       .  A
O418       Zr434   2.492   1_556  S
O418        C441   1.302       .  A
O419       Zr435   2.483       .  S
O419        C442   1.299       .  A
O420       Zr435   2.483   1_554  S
O420        C443   1.300       .  A
O421       Zr434   2.494       .  S
O421        C444   1.303       .  A
O422       Zr436   2.428       .  S
O422        C445   1.290       .  A
O423       Zr436   2.429       .  S
O423        C446   1.290       .  A
O424       Zr434   2.464   1_556  S
O424        C445   1.297       .  A
O425       Zr435   2.421       .  S
O425        C446   1.290       .  A
O426       Zr432   2.443       .  S
O426        C441   1.293       .  A
O427       Zr433   2.420       .  S
O427        C444   1.287       .  A
O428       Zr433   2.427       .  S
O428        C443   1.290       .  A
O429       Zr432   2.447       .  S
O429        C442   1.292       .  A
O430       Zr436   2.457       .  S
O430        C439   1.295       .  A
O431       Zr436   2.474   1_554  S
O431        C440   1.297       .  A
Zr432       O438   2.326       .  S
Zr432       O450   2.333       .  S
Zr433       O437   2.327       .  S
Zr433       O448   2.351       .  S
Zr434       O438   2.340   1_554  S
Zr434       O448   2.357       .  S
Zr435       O437   2.351   1_556  S
Zr435       O450   2.342       .  S
Zr436       O437   2.345   1_556  S
Zr436       O438   2.342       .  S
Zr436       O450   2.348       .  S
Zr436       O448   2.343   1_556  S
C439        C818   1.497       .  S
C440        C829   1.522       .  S
C441        C569   1.511       .  S
C442        C558   1.518       .  S
C443        C609   1.502       .  S
C444        C589   1.514       .  S
C445        C489   1.477       .  S
C446        C509   1.458       .  S
H447        O448   0.967       .  S
H449        O450   0.966       .  S
C451        N452   1.352       .  A
C451        N456   1.378       .  A
C451        C918   1.491       .  S
N452        C453   1.347       .  A
C453        N454   1.350       .  A
C453        C518   1.488       .  S
N454        C455   1.355       .  A
C455        N456   1.378       .  A
C455        C638   1.496   1_556  S
C457        N458   1.354       .  A
C457        N462   1.373       .  A
C457        C898   1.478       .  S
N458        C459   1.348       .  A
C459        N460   1.350       .  A
C459        C498   1.489       .  S
N460        C461   1.354       .  A
C461        N462   1.371       .  A
C461        C678   1.501       .  S
C463        N464   1.376       .  A
C463        N468   1.353       .  A
C463        C649   1.495       .  S
N464        C465   1.375       .  A
C465        N466   1.351       .  A
C465        C878   1.485       .  S
N466        C467   1.346       .  A
C467        N468   1.345       .  A
C467        C469   1.493       .  S
C469        C470   1.429       .  A
C469        C474   1.426       .  A
C470        C471   1.403       .  A
C470       Br482   1.939       .  S
C471        C472   1.399       .  A
C471       Br486   1.935       .  S
C472        C475   1.464       .  S
C472        C473   1.400       .  A
C473        C474   1.401       .  A
C473       Br481   1.936       .  S
C474       Br485   1.939       .  S
C475        C476   1.409       .  A
C475        C480   1.404       .  A
C476        C477   1.400       .  A
C476       Br487   1.932   1_556  S
C477        C478   1.403       .  A
C477       Br483   1.928   1_556  S
C478        C479   1.409       .  A
C479        C480   1.399       .  A
C479       Br488   1.928       .  S
C480       Br484   1.930       .  S
C489        C490   1.406       .  A
C489        C494   1.410       .  A
C490        C491   1.413       .  A
C490       Br502   1.927   1_556  S
C491        C492   1.415       .  A
C491       Br506   1.927   1_556  S
C492        C495   1.481       .  S
C492        C493   1.401       .  A
C493        C494   1.401       .  A
C493       Br501   1.935       .  S
C494       Br505   1.911       .  S
C495        C496   1.410       .  A
C495        C500   1.409       .  A
C496        C497   1.405       .  A
C496       Br507   1.928       .  S
C497        C498   1.410       .  A
C497       Br503   1.930       .  S
C498        C499   1.413       .  A
C499        C500   1.405       .  A
C499       Br508   1.928       .  S
C500       Br504   1.928       .  S
C509        C510   1.408       .  A
C509        C514   1.406   1_556  A
C510        C511   1.401       .  A
C510       Br522   1.931       .  S
C511        C512   1.407       .  A
C511       Br526   1.930       .  S
C512        C515   1.469       .  S
C512        C513   1.407   1_556  A
C513        C514   1.400       .  A
C513       Br521   1.930       .  S
C514       Br525   1.928       .  S
C515        C516   1.402   1_556  A
C515        C520   1.401       .  A
C516        C517   1.401       .  A
C516       Br527   1.937       .  S
C517        C518   1.423   1_554  A
C517       Br523   1.934       .  S
C518        C519   1.426       .  A
C519        C520   1.405       .  A
C519       Br528   1.936       .  S
C520       Br524   1.934       .  S
C529        C530   1.416       .  A
C529        C534   1.413       .  A
C530        C531   1.402       .  A
C530       Br542   1.933       .  S
C531        C532   1.406       .  A
C531       Br546   1.929       .  S
C532        C535   1.472       .  S
C532        C533   1.407       .  A
C533        C534   1.404       .  A
C533       Br541   1.929       .  S
C534       Br545   1.929       .  S
C535        C536   1.411   1_554  A
C535        C540   1.405       .  A
C536        C537   1.404       .  A
C536       Br547   1.929       .  S
C537        C538   1.404   1_556  A
C537       Br543   1.930       .  S
C538        C539   1.408       .  A
C539        C540   1.401       .  A
C539       Br548   1.929       .  S
C540       Br544   1.930       .  S
C549        C550   1.410       .  A
C549        C554   1.411       .  A
C550        C551   1.414       .  A
C550       Br562   1.927       .  S
C551        C552   1.413       .  A
C551       Br566   1.928       .  S
C552        C555   1.506       .  S
C552        C553   1.414       .  A
C553        C554   1.416       .  A
C553       Br561   1.928       .  S
C554       Br565   1.927       .  S
C555        C556   1.411       .  A
C555        C560   1.408       .  A
C556        C557   1.417       .  A
C556       Br567   1.932       .  S
C557        C558   1.422       .  A
C557       Br563   1.931       .  S
C558        C559   1.426       .  A
C559        C560   1.417       .  A
C559       Br568   1.931       .  S
C560       Br564   1.932       .  S
C569        C570   1.418       .  A
C569        C574   1.418       .  A
C570        C571   1.420       .  A
C570       Br582   1.930       .  S
C571        C572   1.417       .  A
C571       Br586   1.930       .  S
C572        C575   1.510       .  S
C572        C573   1.410       .  A
C573        C574   1.412       .  A
C573       Br581   1.932       .  S
C574       Br585   1.924       .  S
C575        C576   1.416       .  A
C575        C580   1.413       .  A
C576        C577   1.418       .  A
C576       Br587   1.930       .  S
C577        C578   1.413       .  A
C577       Br583   1.928       .  S
C578        C579   1.415       .  A
C579        C580   1.414       .  A
C579       Br588   1.930       .  S
C580       Br584   1.931       .  S
C589        C590   1.431       .  A
C589        C594   1.422       .  A
C590        C591   1.411       .  A
C590       Br602   1.937       .  S
C591        C592   1.403       .  A
C591       Br606   1.933       .  S
C592        C595   1.501       .  S
C592        C593   1.412       .  A
C593        C594   1.418       .  A
C593       Br601   1.930       .  S
C594       Br605   1.932       .  S
C595        C596   1.412       .  A
C595        C600   1.412       .  A
C596        C597   1.411       .  A
C596       Br607   1.930       .  S
C597        C598   1.412       .  A
C597       Br603   1.930       .  S
C598        C599   1.410       .  A
C599        C600   1.415       .  A
C599       Br608   1.927       .  S
C600       Br604   1.927       .  S
C609        C610   1.417       .  A
C609        C614   1.420       .  A
C610        C611   1.416       .  A
C610       Br622   1.927       .  S
C611        C612   1.412       .  A
C611       Br626   1.930       .  S
C612        C615   1.498       .  S
C612        C613   1.406       .  A
C613        C614   1.410       .  A
C613       Br621   1.932       .  S
C614       Br625   1.929       .  S
C615        C616   1.414       .  A
C615        C620   1.409       .  A
C616        C617   1.415       .  A
C616       Br627   1.927       .  S
C617        C618   1.409       .  A
C617       Br623   1.927       .  S
C618        C619   1.413       .  A
C619        C620   1.409       .  A
C619       Br628   1.931       .  S
C620       Br624   1.931       .  S
C629        C630   1.418   1_554  A
C629        C634   1.425       .  A
C630        C631   1.420       .  A
C630       Br642   1.930       .  S
C631        C632   1.415   1_556  A
C631       Br646   1.929       .  S
C632        C635   1.511       .  S
C632        C633   1.409       .  A
C633        C634   1.415       .  A
C633       Br641   1.932       .  S
C634       Br645   1.934       .  S
C635        C636   1.415   1_554  A
C635        C640   1.412       .  A
C636        C637   1.420       .  A
C636       Br647   1.927       .  S
C637        C638   1.412   1_556  A
C637       Br643   1.924       .  S
C638        C639   1.414       .  A
C639        C640   1.415       .  A
C639       Br648   1.930       .  S
C640       Br644   1.929       .  S
C649        C650   1.412       .  A
C649        C654   1.416       .  A
C650        C651   1.419       .  A
C650       Br662   1.926   1_556  S
C651        C652   1.416       .  A
C651       Br666   1.927   1_556  S
C652        C655   1.509       .  S
C652        C653   1.412       .  A
C653        C654   1.412       .  A
C653       Br661   1.932       .  S
C654       Br665   1.933       .  S
C655        C656   1.412       .  A
C655        C660   1.407       .  A
C656        C657   1.419       .  A
C656       Br667   1.931       .  S
C657        C658   1.424       .  A
C657       Br663   1.934   1_556  S
C658        C659   1.433       .  A
C659        C660   1.416       .  A
C659       Br668   1.937       .  S
C660       Br664   1.935       .  S
C669        C670   1.414       .  A
C669        C674   1.412   1_556  A
C670        C671   1.412       .  A
C670       Br682   1.933       .  S
C671        C672   1.413       .  A
C671       Br686   1.931       .  S
C672        C675   1.499       .  S
C672        C673   1.414   1_556  A
C673        C674   1.410       .  A
C673       Br681   1.932       .  S
C674       Br685   1.930       .  S
C675        C676   1.407       .  A
C675        C680   1.417       .  A
C676        C677   1.400       .  A
C676       Br687   1.936       .  S
C677        C678   1.418       .  A
C677       Br683   1.930       .  S
C678        C679   1.414       .  A
C679        C680   1.421       .  A
C679       Br688   1.926       .  S
C680       Br684   1.927   1_556  S
C689        C690   1.411       .  A
C689        C694   1.411       .  A
C690        C691   1.408       .  A
C690       Br702   1.932   1_556  S
C691        C692   1.414       .  A
C691       Br706   1.932   1_556  S
C692        C695   1.496       .  S
C692        C693   1.412       .  A
C693        C694   1.411       .  A
C693       Br701   1.929       .  S
C694       Br705   1.925       .  S
C695        C696   1.412       .  A
C695        C700   1.415       .  A
C696        C697   1.407       .  A
C696       Br707   1.932       .  S
C697        C698   1.413       .  A
C697       Br703   1.932       .  S
C698        C699   1.406       .  A
C699        C700   1.412       .  A
C699       Br708   1.926       .  S
C700       Br704   1.929       .  S
C709        C710   1.424       .  A
C709        C714   1.426       .  A
C710        C711   1.398       .  A
C710       Br722   1.925       .  S
C711        C712   1.397       .  A
C711       Br726   1.937       .  S
C712        C715   1.464       .  S
C712        C713   1.402       .  A
C713        C714   1.404       .  A
C713       Br721   1.934       .  S
C714       Br725   1.939       .  S
C715        C716   1.405       .  A
C715        C720   1.404       .  A
C716        C717   1.404       .  A
C716       Br727   1.928       .  S
C717        C718   1.409       .  A
C717       Br723   1.927       .  S
C718        C719   1.412       .  A
C719        C720   1.396       .  A
C719       Br728   1.929       .  S
C720       Br724   1.937       .  S
C729        C730   1.416       .  A
C729        C734   1.419       .  A
C730        C731   1.397       .  A
C730       Br742   1.919       .  S
C731        C732   1.399       .  A
C731       Br746   1.934       .  S
C732        C735   1.462       .  S
C732        C733   1.404       .  A
C733        C734   1.403       .  A
C733       Br741   1.931       .  S
C734       Br745   1.934       .  S
C735        C736   1.404       .  A
C735        C740   1.406       .  A
C736        C737   1.404       .  A
C736       Br747   1.928       .  S
C737        C738   1.411       .  A
C737       Br743   1.929       .  S
C738        C739   1.413       .  A
C739        C740   1.393       .  A
C739       Br748   1.937       .  S
C740       Br744   1.939       .  S
C749        C750   1.410       .  A
C749        C754   1.413       .  A
C750        C751   1.395       .  A
C750       Br762   1.931       .  S
C751        C752   1.404       .  A
C751       Br766   1.934       .  S
C752        C755   1.454       .  S
C752        C753   1.401       .  A
C753        C754   1.398       .  A
C753       Br761   1.932       .  S
C754       Br765   1.927       .  S
C755        C756   1.402       .  A
C755        C760   1.405       .  A
C756        C757   1.395       .  A
C756       Br767   1.932       .  S
C757        C758   1.411       .  A
C757       Br763   1.934       .  S
C758        C759   1.407       .  A
C759        C760   1.397       .  A
C759       Br768   1.932       .  S
C760       Br764   1.931       .  S
C769        C770   1.410       .  A
C769        C774   1.410       .  A
C770        C771   1.402       .  A
C770       Br782   1.931       .  S
C771        C772   1.406       .  A
C771       Br786   1.929       .  S
C772        C775   1.464       .  S
C772        C773   1.405       .  A
C773        C774   1.396       .  A
C773       Br781   1.933       .  S
C774       Br785   1.931       .  S
C775        C776   1.405       .  A
C775        C780   1.404       .  A
C776        C777   1.402       .  A
C776       Br787   1.932       .  S
C777        C778   1.414       .  A
C777       Br783   1.934       .  S
C778        C779   1.413       .  A
C779        C780   1.398       .  A
C779       Br788   1.934       .  S
C780       Br784   1.933       .  S
C789        C790   1.437       .  A
C789        C794   1.423       .  A
C790        C791   1.408       .  A
C790       Br802   1.936       .  S
C791        C792   1.399       .  A
C791       Br806   1.937       .  S
C792        C795   1.501       .  S
C792        C793   1.414       .  A
C793        C794   1.422       .  A
C793       Br801   1.930       .  S
C794       Br805   1.929       .  S
C795        C796   1.412       .  A
C795        C800   1.413       .  A
C796        C797   1.413       .  A
C796       Br807   1.927       .  S
C797        C798   1.410       .  A
C797       Br803   1.927       .  S
C798        C799   1.410       .  A
C799        C800   1.412       .  A
C799       Br808   1.928       .  S
C800       Br804   1.929       .  S
C809        C810   1.411       .  A
C809        C814   1.413       .  A
C810        C811   1.406       .  A
C810       Br822   1.930       .  S
C811        C812   1.409       .  A
C811       Br826   1.932       .  S
C812        C815   1.484       .  S
C812        C813   1.408       .  A
C813        C814   1.410       .  A
C813       Br821   1.930       .  S
C814       Br825   1.928       .  S
C815        C816   1.401       .  A
C815        C820   1.407       .  A
C816        C817   1.406       .  A
C816       Br827   1.934       .  S
C817        C818   1.428       .  A
C817       Br823   1.940       .  S
C818        C819   1.422       .  A
C819        C820   1.410       .  A
C819       Br828   1.936       .  S
C820       Br824   1.932       .  S
C829        C830   1.426       .  A
C829        C834   1.428       .  A
C830        C831   1.420       .  A
C830       Br842   1.934       .  S
C831        C832   1.411       .  A
C831       Br846   1.931       .  S
C832        C835   1.505       .  S
C832        C833   1.405       .  A
C833        C834   1.413       .  A
C833       Br841   1.931       .  S
C834       Br845   1.935       .  S
C835        C836   1.414       .  A
C835        C840   1.412       .  A
C836        C837   1.418       .  A
C836       Br847   1.926       .  S
C837        C838   1.411       .  A
C837       Br843   1.925       .  S
C838        C839   1.410       .  A
C839        C840   1.412       .  A
C839       Br848   1.928       .  S
C840       Br844   1.928       .  S
C849        C850   1.420       .  A
C849        C854   1.424       .  A
C850        C851   1.423       .  A
C850       Br862   1.930       .  S
C851        C852   1.417       .  A
C851       Br866   1.930       .  S
C852        C855   1.514       .  S
C852        C853   1.409       .  A
C853        C854   1.414       .  A
C853       Br861   1.932       .  S
C854       Br865   1.930       .  S
C855        C856   1.415       .  A
C855        C860   1.415       .  A
C856        C857   1.419       .  A
C856       Br867   1.929       .  S
C857        C858   1.414       .  A
C857       Br863   1.926       .  S
C858        C859   1.412       .  A
C859        C860   1.416       .  A
C859       Br868   1.928       .  S
C860       Br864   1.929       .  S
C869        C870   1.422   1_556  A
C869        C874   1.417       .  A
C870        C871   1.410   1_554  A
C870       Br882   1.935       .  S
C871        C872   1.407       .  A
C871       Br886   1.932   1_556  S
C872        C875   1.498       .  S
C872        C873   1.412       .  A
C873        C874   1.414       .  A
C873       Br881   1.928       .  S
C874       Br885   1.932       .  S
C875        C876   1.410   1_556  A
C875        C880   1.412       .  A
C876        C877   1.412   1_554  A
C876       Br887   1.930       .  S
C877        C878   1.413       .  A
C877       Br883   1.929   1_556  S
C878        C879   1.412       .  A
C879        C880   1.415       .  A
C879       Br888   1.926       .  S
C880       Br884   1.930       .  S
C889        C890   1.415       .  A
C889        C894   1.419       .  A
C890        C891   1.414       .  A
C890       Br902   1.929       .  S
C891        C892   1.411       .  A
C891       Br906   1.928       .  S
C892        C895   1.493       .  S
C892        C893   1.405       .  A
C893        C894   1.408       .  A
C893       Br901   1.931   1_556  S
C894       Br905   1.930   1_556  S
C895        C896   1.410       .  A
C895        C900   1.410       .  A
C896        C897   1.410       .  A
C896       Br907   1.930       .  S
C897        C898   1.411       .  A
C897       Br903   1.928       .  S
C898        C899   1.411       .  A
C899        C900   1.411       .  A
C899       Br908   1.929   1_556  S
C900       Br904   1.929   1_556  S
C909        C910   1.422       .  A
C909        C914   1.432       .  A
C910        C911   1.421       .  A
C910       Br922   1.932   1_556  S
C911        C912   1.413       .  A
C911       Br926   1.930   1_556  S
C912        C915   1.510       .  S
C912        C913   1.406       .  A
C913        C914   1.416       .  A
C913       Br921   1.934       .  S
C914       Br925   1.937       .  S
C915        C916   1.415   1_556  A
C915        C920   1.412       .  A
C916        C917   1.419       .  A
C916       Br927   1.927       .  S
C917        C918   1.411   1_554  A
C917       Br923   1.924       .  S
C918        C919   1.411       .  A
C919        C920   1.414       .  A
C919       Br928   1.927       .  S
C920       Br924   1.929       .  S
C929        C930   1.408       .  A
C929        C934   1.410       .  A
C930        C931   1.410       .  A
C930       Br942   1.927   1_556  S
C931        C932   1.411       .  A
C931       Br946   1.928       .  S
C932        C935   1.491       .  S
C932        C933   1.410       .  A
C933        C934   1.409       .  A
C933       Br941   1.929       .  S
C934       Br945   1.929       .  S
C935        C936   1.410       .  A
C935        C940   1.407       .  A
C936        C937   1.408       .  A
C936       Br947   1.929   1_556  S
C937        C938   1.411       .  A
C937       Br943   1.930   1_556  S
C938        C939   1.416       .  A
C939        C940   1.412       .  A
C939       Br948   1.923       .  S
C940       Br944   1.928       .  S
C949        C950   1.411       .  A
C949        C954   1.408       .  A
C950        C951   1.395       .  A
C950       Br962   1.929       .  S
C951        C952   1.404       .  A
C951       Br966   1.934       .  S
C952        C955   1.456       .  S
C952        C953   1.404       .  A
C953        C954   1.397       .  A
C953       Br961   1.930       .  S
C954       Br965   1.930       .  S
C955        C956   1.402       .  A
C955        C960   1.402       .  A
C956        C957   1.393       .  A
C956       Br967   1.938       .  S
C957        C958   1.417       .  A
C957       Br963   1.937       .  S
C958        C959   1.417       .  A
C959        C960   1.401       .  A
C959       Br968   1.934       .  S
C960       Br964   1.932       .  S
C969        C970   1.410       .  A
C969        C974   1.405       .  A
C970        C971   1.404       .  A
C970       Br982   1.925       .  S
C971        C972   1.405       .  A
C971       Br986   1.929       .  S
C972        C975   1.476       .  S
C972        C973   1.411       .  A
C973        C974   1.404       .  A
C973       Br981   1.927       .  S
C974       Br985   1.929       .  S
C975        C976   1.406       .  A
C975        C980   1.405       .  A
C976        C977   1.406       .  A
C976       Br987   1.927       .  S
C977        C978   1.413       .  A
C977       Br983   1.929       .  S
C978        C979   1.420       .  A
C979        C980   1.403       .  A
C979       Br988   1.935       .  S
C980       Br984   1.932       .  S
C989        C990   1.415       .  A
C989        C994   1.416       .  A
C990        C991   1.401       .  A
C990      Br1002   1.934       .  S
C991        C992   1.405       .  A
C991      Br1006   1.934       .  S
C992        C995   1.470       .  S
C992        C993   1.405       .  A
C993        C994   1.404       .  A
C993      Br1001   1.932       .  S
C994      Br1005   1.933       .  S
C995        C996   1.404       .  A
C995       C1000   1.408       .  A
C996        C997   1.399       .  A
C996      Br1007   1.933       .  S
C997        C998   1.413       .  A
C997      Br1003   1.927       .  S
C998        C999   1.408       .  A
C999       C1000   1.404       .  A
C999      Br1008   1.931       .  S
C1000     Br1004   1.929       .  S
C1009      C1010   1.409       .  A
C1009      C1014   1.410       .  A
C1010      C1011   1.400       .  A
C1010     Br1022   1.933       .  S
C1011      C1012   1.407       .  A
C1011     Br1026   1.931       .  S
C1012      C1015   1.460       .  S
C1012      C1013   1.404       .  A
C1013      C1014   1.394       .  A
C1013     Br1021   1.934       .  S
C1014     Br1025   1.930       .  S
C1015      C1016   1.404       .  A
C1015      C1020   1.407       .  A
C1016      C1017   1.399       .  A
C1016     Br1027   1.932       .  S
C1017      C1018   1.412       .  A
C1017     Br1023   1.932       .  S
C1018      C1019   1.407       .  A
C1019      C1020   1.396       .  A
C1019     Br1028   1.933       .  S
C1020     Br1024   1.933       .  S
C1029      C1030   1.416       .  A
C1029      C1034   1.412   1_545  A
C1030      C1031   1.415       .  A
C1030     Br1042   1.929       .  S
C1031      C1032   1.411       .  A
C1031     Br1046   1.932       .  S
C1032      C1035   1.508   1_545  S
C1032      C1033   1.414   1_545  A
C1033      C1034   1.418       .  A
C1033     Br1041   1.927       .  S
C1034     Br1045   1.926       .  S
C1035      C1036   1.409   1_565  A
C1035      C1040   1.413       .  A
C1036      C1037   1.416       .  A
C1036     Br1047   1.932       .  S
C1037      C1038   1.426   1_545  A
C1037     Br1043   1.932       .  S
C1038      C1039   1.418       .  A
C1039      C1040   1.417       .  A
C1039     Br1048   1.932       .  S
C1040     Br1044   1.930       .  S
C1049      C1050   1.413       .  A
C1049      C1054   1.410   1_565  A
C1050      C1051   1.413       .  A
C1050     Br1062   1.926       .  S
C1051      C1052   1.412       .  A
C1051     Br1066   1.932       .  S
C1052      C1055   1.503       .  S
C1052      C1053   1.415   1_565  A
C1053      C1054   1.416       .  A
C1053     Br1061   1.930       .  S
C1054     Br1065   1.925       .  S
C1055      C1056   1.415       .  A
C1055      C1060   1.409   1_565  A
C1056      C1057   1.415       .  A
C1056     Br1067   1.933       .  S
C1057      C1058   1.418   1_565  A
C1057     Br1063   1.933       .  S
C1058      C1059   1.421       .  A
C1059      C1060   1.412       .  A
C1059     Br1068   1.933       .  S
C1060     Br1064   1.931       .  S
C1069      C1070   1.415   1_565  A
C1069      C1074   1.416       .  A
C1070      C1071   1.415       .  A
C1070     Br1082   1.932       .  S
C1071      C1072   1.413   1_545  A
C1071     Br1086   1.930       .  S
C1072      C1075   1.496       .  S
C1072      C1073   1.408       .  A
C1073      C1074   1.409       .  A
C1073     Br1081   1.930       .  S
C1074     Br1085   1.933       .  S
C1075      C1076   1.412   1_565  A
C1075      C1080   1.410       .  A
C1076      C1077   1.413       .  A
C1076     Br1087   1.925       .  S
C1077      C1078   1.409       .  A
C1077     Br1083   1.928       .  S
C1078      C1079   1.411   1_545  A
C1079      C1080   1.410       .  A
C1079     Br1088   1.928       .  S
C1080     Br1084   1.930       .  S
C1089      C1090   1.418       .  A
C1089      C1094   1.415       .  A
C1090      C1091   1.408       .  A
C1090     Br1102   1.934       .  S
C1091      C1092   1.411       .  A
C1091     Br1106   1.934       .  S
C1092      C1095   1.518       .  S
C1092      C1093   1.421       .  A
C1093      C1094   1.428       .  A
C1093     Br1101   1.926       .  S
C1094     Br1105   1.924       .  S
C1095      C1096   1.415       .  A
C1095      C1100   1.421       .  A
C1096      C1097   1.412       .  A
C1096     Br1107   1.931       .  S
C1097      C1098   1.410       .  A
C1097     Br1103   1.928       .  S
C1098      C1099   1.412       .  A
C1099      C1100   1.424       .  A
C1099     Br1108   1.925       .  S
C1100     Br1104   1.927       .  S
C1109      C1110   1.424       .  A
C1109      C1114   1.419       .  A
C1110      C1111   1.414       .  A
C1110     Br1122   1.933       .  S
C1111      C1112   1.407       .  A
C1111     Br1126   1.931       .  S
C1112      C1115   1.499       .  S
C1112      C1113   1.410       .  A
C1113      C1114   1.414       .  A
C1113     Br1121   1.931       .  S
C1114     Br1125   1.932       .  S
C1115      C1116   1.408       .  A
C1115      C1120   1.413       .  A
C1116      C1117   1.410       .  A
C1116     Br1127   1.930       .  S
C1117      C1118   1.415       .  A
C1117     Br1123   1.931       .  S
C1118      C1119   1.412       .  A
C1119      C1120   1.417       .  A
C1119     Br1128   1.926       .  S
C1120     Br1124   1.928       .  S
C1129      C1130   1.421       .  A
C1129      C1134   1.418       .  A
C1130      C1131   1.408       .  A
C1130     Br1142   1.923       .  S
C1131      C1132   1.405       .  A
C1131     Br1146   1.934       .  S
C1132      C1135   1.500       .  S
C1132      C1133   1.414       .  A
C1133      C1134   1.419       .  A
C1133     Br1141   1.930       .  S
C1134     Br1145   1.930       .  S
C1135      C1136   1.412       .  A
C1135      C1140   1.413       .  A
C1136      C1137   1.413       .  A
C1136     Br1147   1.929       .  S
C1137      C1138   1.409       .  A
C1137     Br1143   1.926       .  S
C1138      C1139   1.411       .  A
C1139      C1140   1.413       .  A
C1139     Br1148   1.928       .  S
C1140     Br1144   1.931       .  S
C1149      C1150   1.412       .  A
C1149      C1154   1.413       .  A
C1150      C1151   1.410       .  A
C1150     Br1162   1.930       .  S
C1151      C1152   1.411       .  A
C1151     Br1166   1.931       .  S
C1152      C1155   1.495       .  S
C1152      C1153   1.411       .  A
C1153      C1154   1.415       .  A
C1153     Br1161   1.928       .  S
C1154     Br1165   1.925       .  S
C1155      C1156   1.414       .  A
C1155      C1160   1.409       .  A
C1156      C1157   1.414       .  A
C1156     Br1167   1.927       .  S
C1157      C1158   1.408       .  A
C1157     Br1163   1.926       .  S
C1158      C1159   1.409       .  A
C1159      C1160   1.408       .  A
C1159     Br1168   1.926       .  S
C1160     Br1164   1.928       .  S
C1169      C1170   1.407       .  A
C1169      C1174   1.404   1_565  A
C1170      C1171   1.399       .  A
C1170     Br1182   1.931       .  S
C1171      C1172   1.406       .  A
C1171     Br1186   1.931       .  S
C1172      C1175   1.462       .  S
C1172      C1173   1.408   1_565  A
C1173      C1174   1.399       .  A
C1173     Br1181   1.931       .  S
C1174     Br1185   1.930       .  S
C1175      C1176   1.404       .  A
C1175      C1180   1.404   1_565  A
C1176      C1177   1.394       .  A
C1176     Br1187   1.935       .  S
C1177      C1178   1.411       .  A
C1177     Br1183   1.930       .  S
C1178      C1179   1.417   1_565  A
C1179      C1180   1.403       .  A
C1179     Br1188   1.933       .  S
C1180     Br1184   1.931       .  S
C1189      C1190   1.419       .  A
C1189      C1194   1.409       .  A
C1190      C1191   1.406       .  A
C1190     Br1202   1.934       .  S
C1191      C1192   1.405       .  A
C1191     Br1206   1.930       .  S
C1192      C1195   1.469       .  S
C1192      C1193   1.407       .  A
C1193      C1194   1.395       .  A
C1193     Br1201   1.931   1_565  S
C1194     Br1205   1.935   1_565  S
C1195      C1196   1.401       .  A
C1195      C1200   1.408       .  A
C1196      C1197   1.398       .  A
C1196     Br1207   1.936   1_565  S
C1197      C1198   1.419       .  A
C1197     Br1203   1.932   1_565  S
C1198      C1199   1.407       .  A
C1199      C1200   1.406       .  A
C1199     Br1208   1.927       .  S
C1200     Br1204   1.928       .  S
C1209      C1210   1.418       .  A
C1209      C1214   1.418       .  A
C1210      C1211   1.405       .  A
C1210     Br1222   1.931       .  S
C1211      C1212   1.404       .  A
C1211     Br1226   1.929       .  S
C1212      C1215   1.474       .  S
C1212      C1213   1.406       .  A
C1213      C1214   1.404       .  A
C1213     Br1221   1.931       .  S
C1214     Br1225   1.933       .  S
C1215      C1216   1.410       .  A
C1215      C1220   1.402       .  A
C1216      C1217   1.405   1_545  A
C1216     Br1227   1.931   1_545  S
C1217      C1218   1.406   1_565  A
C1217     Br1223   1.923       .  S
C1218      C1219   1.411       .  A
C1219      C1220   1.403       .  A
C1219     Br1228   1.916       .  S
C1220     Br1224   1.931       .  S
C1229      C1230   1.418       .  A
C1229      C1234   1.413   1_565  A
C1230      C1231   1.407       .  A
C1230     Br1242   1.936       .  S
C1231      C1232   1.409       .  A
C1231     Br1246   1.934       .  S
C1232      C1235   1.498       .  S
C1232      C1233   1.414   1_565  A
C1233      C1234   1.416       .  A
C1233     Br1241   1.929       .  S
C1234     Br1245   1.928       .  S
C1235      C1236   1.408       .  A
C1235      C1240   1.414   1_565  A
C1236      C1237   1.408       .  A
C1236     Br1247   1.935       .  S
C1237      C1238   1.418       .  A
C1237     Br1243   1.928       .  S
C1238      C1239   1.414   1_565  A
C1239      C1240   1.416       .  A
C1239     Br1248   1.929       .  S
C1240     Br1244   1.929       .  S
C1249      C1250   1.409       .  A
C1249      C1254   1.403       .  A
C1250      C1251   1.402       .  A
C1250     Br1262   1.926       .  S
C1251      C1252   1.405       .  A
C1251     Br1266   1.929       .  S
C1252      C1255   1.465       .  S
C1252      C1253   1.408       .  A
C1253      C1254   1.397       .  A
C1253     Br1261   1.932   1_565  S
C1254     Br1265   1.925   1_565  S
C1255      C1256   1.402       .  A
C1255      C1260   1.407       .  A
C1256      C1257   1.402       .  A
C1256     Br1267   1.930       .  S
C1257      C1258   1.417       .  A
C1257     Br1263   1.934       .  S
C1258      C1259   1.413       .  A
C1259      C1260   1.398       .  A
C1259     Br1268   1.935   1_565  S
C1260     Br1264   1.935       .  S
C1269      C1270   1.411       .  A
C1269      C1274   1.413       .  A
C1270      C1271   1.414       .  A
C1270     Br1282   1.927       .  S
C1271      C1272   1.412       .  A
C1271     Br1286   1.928       .  S
C1272      C1275   1.506       .  S
C1272      C1273   1.413       .  A
C1273      C1274   1.417       .  A
C1273     Br1281   1.928       .  S
C1274     Br1285   1.929       .  S
C1275      C1276   1.416       .  A
C1275      C1280   1.409       .  A
C1276      C1277   1.418       .  A
C1276     Br1287   1.927       .  S
C1277      C1278   1.411       .  A
C1277     Br1283   1.926       .  S
C1278      C1279   1.417       .  A
C1279      C1280   1.414       .  A
C1279     Br1288   1.925       .  S
C1280     Br1284   1.930       .  S
C1289      C1290   1.415       .  A
C1289      C1294   1.413       .  A
C1290      C1291   1.417       .  A
C1290     Br1302   1.928       .  S
C1291      C1292   1.411       .  A
C1291     Br1306   1.929       .  S
C1292      C1295   1.509       .  S
C1292      C1293   1.413       .  A
C1293      C1294   1.418       .  A
C1293     Br1301   1.928       .  S
C1294     Br1305   1.927       .  S
C1295      C1296   1.408       .  A
C1295      C1300   1.410       .  A
C1296      C1297   1.418       .  A
C1296     Br1307   1.931       .  S
C1297      C1298   1.429       .  A
C1297     Br1303   1.935       .  S
C1298      C1299   1.425       .  A
C1299      C1300   1.418       .  A
C1299     Br1308   1.932       .  S
C1300     Br1304   1.932       .  S
C1309      C1310   1.411       .  A
C1309      C1314   1.412       .  A
C1310      C1311   1.411       .  A
C1310     Br1322   1.928       .  S
C1311      C1312   1.411       .  A
C1311     Br1326   1.929       .  S
C1312      C1315   1.502       .  S
C1312      C1313   1.413       .  A
C1313      C1314   1.416       .  A
C1313     Br1321   1.927       .  S
C1314     Br1325   1.926       .  S
C1315      C1316   1.403       .  A
C1315      C1320   1.413       .  A
C1316      C1317   1.412       .  A
C1316     Br1327   1.934       .  S
C1317      C1318   1.429       .  A
C1317     Br1323   1.929       .  S
C1318      C1319   1.418       .  A
C1319      C1320   1.418       .  A
C1319     Br1328   1.928       .  S
C1320     Br1324   1.923       .  S
C1329      C1330   1.410       .  A
C1329      C1334   1.411       .  A
C1330      C1331   1.412       .  A
C1330     Br1342   1.928       .  S
C1331      C1332   1.411       .  A
C1331     Br1346   1.927       .  S
C1332      C1335   1.497       .  S
C1332      C1333   1.411       .  A
C1333      C1334   1.411       .  A
C1333     Br1341   1.928       .  S
C1334     Br1345   1.928       .  S
C1335      C1336   1.408       .  A
C1335      C1340   1.402       .  A
C1336      C1337   1.416       .  A
C1336     Br1347   1.932       .  S
C1337      C1338   1.427       .  A
C1337     Br1343   1.934       .  S
C1338      C1339   1.435       .  A
C1339      C1340   1.413       .  A
C1339     Br1348   1.940       .  S
C1340     Br1344   1.934       .  S
C1349      C1350   1.424       .  A
C1349      C1354   1.432       .  A
C1350      C1351   1.424       .  A
C1350     Br1362   1.928       .  S
C1351      C1352   1.414       .  A
C1351     Br1366   1.930       .  S
C1352      C1355   1.513       .  S
C1352      C1353   1.406       .  A
C1353      C1354   1.414       .  A
C1353     Br1361   1.935       .  S
C1354     Br1365   1.936       .  S
C1355      C1356   1.417   1_565  A
C1355      C1360   1.415       .  A
C1356      C1357   1.417       .  A
C1356     Br1367   1.929       .  S
C1357      C1358   1.410   1_545  A
C1357     Br1363   1.930       .  S
C1358      C1359   1.413       .  A
C1359      C1360   1.417       .  A
C1359     Br1368   1.931       .  S
C1360     Br1364   1.929       .  S
C1369      C1370   1.410   1_565  A
C1369      C1374   1.416       .  A
C1370      C1371   1.413       .  A
C1370     Br1382   1.928       .  S
C1371      C1372   1.414   1_545  A
C1371     Br1386   1.930       .  S
C1372      C1375   1.505       .  S
C1372      C1373   1.414       .  A
C1373      C1374   1.418       .  A
C1373     Br1381   1.929       .  S
C1374     Br1385   1.931       .  S
C1375      C1376   1.412       .  A
C1375      C1380   1.417       .  A
C1376      C1377   1.410       .  A
C1376     Br1387   1.928       .  S
C1377      C1378   1.410       .  A
C1377     Br1383   1.930       .  S
C1378      C1379   1.408   1_565  A
C1379      C1380   1.417   1_545  A
C1379     Br1388   1.926       .  S
C1380     Br1384   1.928   1_565  S
C1389      C1390   1.416       .  A
C1389      C1394   1.414   1_565  A
C1390      C1391   1.418       .  A
C1390     Br1402   1.930       .  S
C1391      C1392   1.413       .  A
C1391     Br1406   1.928       .  S
C1392      C1395   1.517       .  S
C1392      C1393   1.415   1_565  A
C1393      C1394   1.422       .  A
C1393     Br1401   1.927       .  S
C1394     Br1405   1.927       .  S
C1395      C1396   1.405       .  A
C1395      C1400   1.412       .  A
C1396      C1397   1.421       .  A
C1396     Br1407   1.935       .  S
C1397      C1398   1.441       .  A
C1397     Br1403   1.941       .  S
C1398      C1399   1.427       .  A
C1399      C1400   1.425       .  A
C1399     Br1408   1.930   1_565  S
C1400     Br1404   1.930   1_565  S
C1409      C1410   1.425   1_565  A
C1409      C1414   1.420       .  A
C1410      C1411   1.414       .  A
C1410     Br1422   1.934       .  S
C1411      C1412   1.407   1_545  A
C1411     Br1426   1.931       .  S
C1412      C1415   1.499       .  S
C1412      C1413   1.410       .  A
C1413      C1414   1.413       .  A
C1413     Br1421   1.931       .  S
C1414     Br1425   1.933       .  S
C1415      C1416   1.412   1_565  A
C1415      C1420   1.412       .  A
C1416      C1417   1.411       .  A
C1416     Br1427   1.928       .  S
C1417      C1418   1.410   1_545  A
C1417     Br1423   1.929       .  S
C1418      C1419   1.410       .  A
C1419      C1420   1.412       .  A
C1419     Br1428   1.929       .  S
C1420     Br1424   1.928       .  S
C1429      C1430   1.413       .  A
C1429      C1434   1.420       .  A
C1430      C1431   1.406       .  A
C1430     Br1442   1.932       .  S
C1431      C1432   1.410       .  A
C1431     Br1446   1.930       .  S
C1432      C1435   1.473       .  S
C1432      C1433   1.401       .  A
C1433      C1434   1.400       .  A
C1433     Br1441   1.934       .  S
C1434     Br1445   1.930       .  S
C1435      C1436   1.406       .  A
C1435      C1440   1.407       .  A
C1436      C1437   1.406       .  A
C1436     Br1447   1.928       .  S
C1437      C1438   1.413       .  A
C1437     Br1443   1.930       .  S
C1438      C1439   1.420       .  A
C1439      C1440   1.398       .  A
C1439     Br1448   1.935       .  S
C1440     Br1444   1.942       .  S
C1449      C1450   1.407       .  A
C1449      C1454   1.403       .  A
C1450      C1451   1.400       .  A
C1450     Br1462   1.930       .  S
C1451      C1452   1.406       .  A
C1451     Br1466   1.930       .  S
C1452      C1455   1.463       .  S
C1452      C1453   1.408       .  A
C1453      C1454   1.398       .  A
C1453     Br1461   1.933       .  S
C1454     Br1465   1.929       .  S
C1455      C1456   1.401       .  A
C1455      C1460   1.399       .  A
C1456      C1457   1.401       .  A
C1456     Br1467   1.936       .  S
C1457      C1458   1.425       .  A
C1457     Br1463   1.939       .  S
C1458      C1459   1.424       .  A
C1459      C1460   1.399       .  A
C1459     Br1468   1.937       .  S
C1460     Br1464   1.935       .  S
C1469      C1470   1.415       .  A
C1469      C1474   1.418       .  A
C1470      C1471   1.403       .  A
C1470     Br1482   1.932       .  S
C1471      C1472   1.402       .  A
C1471     Br1486   1.928       .  S
C1472      C1475   1.469       .  S
C1472      C1473   1.403       .  A
C1473      C1474   1.400       .  A
C1473     Br1481   1.935       .  S
C1474     Br1485   1.928       .  S
C1475      C1476   1.400       .  A
C1475      C1480   1.411       .  A
C1476      C1477   1.399       .  A
C1476     Br1487   1.930       .  S
C1477      C1478   1.411       .  A
C1477     Br1483   1.919       .  S
C1478      C1479   1.408       .  A
C1479      C1480   1.405       .  A
C1479     Br1488   1.931       .  S
C1480     Br1484   1.931       .  S
C1489      C1490   1.423       .  A
C1489      C1494   1.419       .  A
C1490      C1491   1.404       .  A
C1490     Br1502   1.933       .  S
C1491      C1492   1.402       .  A
C1491     Br1506   1.935       .  S
C1492      C1495   1.468       .  S
C1492      C1493   1.404       .  A
C1493      C1494   1.402       .  A
C1493     Br1501   1.934       .  S
C1494     Br1505   1.937       .  S
C1495      C1496   1.407       .  A
C1495      C1500   1.406       .  A
C1496      C1497   1.404       .  A
C1496     Br1507   1.928       .  S
C1497      C1498   1.408       .  A
C1497     Br1503   1.929       .  S
C1498      C1499   1.412       .  A
C1499      C1500   1.398       .  A
C1499     Br1508   1.934       .  S
C1500     Br1504   1.935       .  S
C1509      C1510   1.415       .  A
C1509      C1514   1.414   1_455  A
C1510      C1511   1.410       .  A
C1510     Br1522   1.927       .  S
C1511      C1512   1.408       .  A
C1511     Br1526   1.929       .  S
C1512      C1515   1.496       .  S
C1512      C1513   1.412   1_455  A
C1513      C1514   1.413       .  A
C1513     Br1521   1.930       .  S
C1514     Br1525   1.929       .  S
C1515      C1516   1.411       .  A
C1515      C1520   1.411   1_455  A
C1516      C1517   1.414       .  A
C1516     Br1527   1.928       .  S
C1517      C1518   1.412   1_455  A
C1517     Br1523   1.928       .  S
C1518      C1519   1.411       .  A
C1519      C1520   1.411       .  A
C1519     Br1528   1.928       .  S
C1520     Br1524   1.931       .  S
C1529      C1530   1.418   1_655  A
C1529      C1534   1.412       .  A
C1530      C1531   1.411       .  A
C1530     Br1542   1.933       .  S
C1531      C1532   1.409       .  A
C1531     Br1546   1.931       .  S
C1532      C1535   1.504       .  S
C1532      C1533   1.414   1_455  A
C1533      C1534   1.419       .  A
C1533     Br1541   1.926       .  S
C1534     Br1545   1.927       .  S
C1535      C1536   1.414   1_455  A
C1535      C1540   1.412       .  A
C1536      C1537   1.416       .  A
C1536     Br1547   1.931       .  S
C1537      C1538   1.413       .  A
C1537     Br1543   1.929       .  S
C1538      C1539   1.411   1_655  A
C1539      C1540   1.415       .  A
C1539     Br1548   1.929       .  S
C1540     Br1544   1.926       .  S
C1549      C1550   1.408       .  A
C1549      C1554   1.414       .  A
C1550      C1551   1.413       .  A
C1550     Br1562   1.927   1_655  S
C1551      C1552   1.414       .  A
C1551     Br1566   1.928   1_655  S
C1552      C1555   1.493       .  S
C1552      C1553   1.409       .  A
C1553      C1554   1.408       .  A
C1553     Br1561   1.931       .  S
C1554     Br1565   1.931       .  S
C1555      C1556   1.411       .  A
C1555      C1560   1.411   1_655  A
C1556      C1557   1.412       .  A
C1556     Br1567   1.928       .  S
C1557      C1558   1.411       .  A
C1557     Br1563   1.925       .  S
C1558      C1559   1.407   1_655  A
C1559      C1560   1.408       .  A
C1559     Br1568   1.917       .  S
C1560     Br1564   1.932       .  S
C1569      C1570   1.410       .  A
C1569      C1574   1.409   1_655  A
C1570      C1571   1.413       .  A
C1570     Br1582   1.928       .  S
C1571      C1572   1.412       .  A
C1571     Br1586   1.927       .  S
C1572      C1575   1.499       .  S
C1572      C1573   1.412   1_655  A
C1573      C1574   1.411       .  A
C1573     Br1581   1.928       .  S
C1574     Br1585   1.929       .  S
C1575      C1576   1.406       .  A
C1575      C1580   1.412   1_655  A
C1576      C1577   1.414       .  A
C1576     Br1587   1.932       .  S
C1577      C1578   1.423       .  A
C1577     Br1583   1.928       .  S
C1578      C1579   1.416   1_655  A
C1579      C1580   1.415       .  A
C1579     Br1588   1.930       .  S
C1580     Br1584   1.928       .  S
C1589      C1590   1.408   1_655  A
C1589      C1594   1.414       .  A
C1590      C1591   1.413       .  A
C1590     Br1602   1.927       .  S
C1591      C1592   1.411   1_455  A
C1591     Br1606   1.926       .  S
C1592      C1595   1.492       .  S
C1592      C1593   1.408       .  A
C1593      C1594   1.408       .  A
C1593     Br1601   1.931       .  S
C1594     Br1605   1.931       .  S
C1595      C1596   1.410   1_655  A
C1595      C1600   1.405       .  A
C1596      C1597   1.411       .  A
C1596     Br1607   1.932       .  S
C1597      C1598   1.416   1_455  A
C1597     Br1603   1.926       .  S
C1598      C1599   1.419       .  A
C1599      C1600   1.411       .  A
C1599     Br1608   1.930       .  S
C1600     Br1604   1.928       .  S
C1609      C1610   1.433       .  A
C1609      C1614   1.426       .  A
C1610      C1611   1.411       .  A
C1610     Br1622   1.940       .  S
C1611      C1612   1.403       .  A
C1611     Br1626   1.936       .  S
C1612      C1615   1.496       .  S
C1612      C1613   1.410       .  A
C1613      C1614   1.415       .  A
C1613     Br1621   1.933   1_655  S
C1614     Br1625   1.936   1_655  S
C1615      C1616   1.410   1_655  A
C1615      C1620   1.412       .  A
C1616      C1617   1.410       .  A
C1616     Br1627   1.931       .  S
C1617      C1618   1.413   1_455  A
C1617     Br1623   1.930       .  S
C1618      C1619   1.411       .  A
C1619      C1620   1.412       .  A
C1619     Br1628   1.928       .  S
C1620     Br1624   1.930       .  S
C1629      C1630   1.411       .  A
C1629      C1634   1.413       .  A
C1630      C1631   1.414       .  A
C1630     Br1642   1.929       .  S
C1631      C1632   1.414       .  A
C1631     Br1646   1.928       .  S
C1632      C1635   1.504       .  S
C1632      C1633   1.412       .  A
C1633      C1634   1.415       .  A
C1633     Br1641   1.930       .  S
C1634     Br1645   1.920       .  S
C1635      C1636   1.409       .  A
C1635      C1640   1.416       .  A
C1636      C1637   1.409       .  A
C1636     Br1647   1.933       .  S
C1637      C1638   1.418       .  A
C1637     Br1643   1.934       .  S
C1638      C1639   1.413       .  A
C1639      C1640   1.420       .  A
C1639     Br1648   1.926       .  S
C1640     Br1644   1.927       .  S
C1649      C1650   1.419       .  A
C1649      C1654   1.416       .  A
C1650      C1651   1.412       .  A
C1650     Br1662   1.929       .  S
C1651      C1652   1.407       .  A
C1651     Br1666   1.930       .  S
C1652      C1655   1.499       .  S
C1652      C1653   1.412       .  A
C1653      C1654   1.415       .  A
C1653     Br1661   1.930       .  S
C1654     Br1665   1.930       .  S
C1655      C1656   1.410       .  A
C1655      C1660   1.413       .  A
C1656      C1657   1.412       .  A
C1656     Br1667   1.929       .  S
C1657      C1658   1.413       .  A
C1657     Br1663   1.930       .  S
C1658      C1659   1.410       .  A
C1659      C1660   1.414       .  A
C1659     Br1668   1.929       .  S
C1660     Br1664   1.929       .  S
C1669      C1670   1.414       .  A
C1669      C1674   1.410       .  A
C1670      C1671   1.408       .  A
C1670     Br1682   1.931       .  S
C1671      C1672   1.409       .  A
C1671     Br1686   1.931       .  S
C1672      C1675   1.494       .  S
C1672      C1673   1.412       .  A
C1673      C1674   1.414       .  A
C1673     Br1681   1.928       .  S
C1674     Br1685   1.927       .  S
C1675      C1676   1.406       .  A
C1675      C1680   1.410       .  A
C1676      C1677   1.411       .  A
C1676     Br1687   1.931       .  S
C1677      C1678   1.420       .  A
C1677     Br1683   1.926       .  S
C1678      C1679   1.417       .  A
C1679      C1680   1.413       .  A
C1679     Br1688   1.927       .  S
C1680     Br1684   1.931       .  S
C1689      C1690   1.413       .  A
C1689      C1694   1.414       .  A
C1690      C1691   1.418       .  A
C1690     Br1702   1.926       .  S
C1691      C1692   1.414       .  A
C1691     Br1706   1.929       .  S
C1692      C1695   1.511       .  S
C1692      C1693   1.414       .  A
C1693      C1694   1.417       .  A
C1693     Br1701   1.929       .  S
C1694     Br1705   1.929       .  S
C1695      C1696   1.411       .  A
C1695      C1700   1.406       .  A
C1696      C1697   1.420       .  A
C1696     Br1707   1.932       .  S
C1697      C1698   1.428       .  A
C1697     Br1703   1.934       .  S
C1698      C1699   1.437       .  A
C1699      C1700   1.418       .  A
C1699     Br1708   1.940       .  S
C1700     Br1704   1.933       .  S
C1709      C1710   1.414       .  A
C1709      C1714   1.410       .  A
C1710      C1711   1.410       .  A
C1710     Br1722   1.930       .  S
C1711      C1712   1.409       .  A
C1711     Br1726   1.930       .  S
C1712      C1715   1.497       .  S
C1712      C1713   1.414       .  A
C1713      C1714   1.414       .  A
C1713     Br1721   1.928       .  S
C1714     Br1725   1.927       .  S
C1715      C1716   1.401       .  A
C1715      C1720   1.411       .  A
C1716      C1717   1.409       .  A
C1716     Br1727   1.937       .  S
C1717      C1718   1.436       .  A
C1717     Br1723   1.939       .  S
C1718      C1719   1.422       .  A
C1719      C1720   1.419       .  A
C1719     Br1728   1.931       .  S
C1720     Br1724   1.930       .  S
C1729      C1730   1.420       .  A
C1729      C1734   1.425       .  A
C1730      C1731   1.415       .  A
C1730     Br1742   1.932       .  S
C1731      C1732   1.412       .  A
C1731     Br1746   1.931       .  S
C1732      C1735   1.500       .  S
C1732      C1733   1.406       .  A
C1733      C1734   1.411       .  A
C1733     Br1741   1.931       .  S
C1734     Br1745   1.935       .  S
C1735      C1736   1.412       .  A
C1735      C1740   1.411       .  A
C1736      C1737   1.415       .  A
C1736     Br1747   1.928       .  S
C1737      C1738   1.412       .  A
C1737     Br1743   1.926       .  S
C1738      C1739   1.413       .  A
C1739      C1740   1.411       .  A
C1739     Br1748   1.929       .  S
C1740     Br1744   1.931       .  S
C1749      C1750   1.420       .  A
C1749      C1754   1.428       .  A
C1750      C1751   1.418       .  A
C1750     Br1762   1.933       .  S
C1751      C1752   1.413       .  A
C1751     Br1766   1.931       .  S
C1752      C1755   1.502       .  S
C1752      C1753   1.405       .  A
C1753      C1754   1.413       .  A
C1753     Br1761   1.934       .  S
C1754     Br1765   1.936       .  S
C1755      C1756   1.413       .  A
C1755      C1760   1.410       .  A
C1756      C1757   1.416       .  A
C1756     Br1767   1.928       .  S
C1757      C1758   1.410       .  A
C1757     Br1763   1.926       .  S
C1758      C1759   1.414       .  A
C1759      C1760   1.412       .  A
C1759     Br1768   1.930       .  S
C1760     Br1764   1.930       .  S
C1769      C1770   1.415       .  A
C1769      C1774   1.411       .  A
C1770      C1771   1.412       .  A
C1770     Br1782   1.925       .  S
C1771      C1772   1.409       .  A
C1771     Br1786   1.930       .  S
C1772      C1775   1.502       .  S
C1772      C1773   1.415       .  A
C1773      C1774   1.416       .  A
C1773     Br1781   1.928       .  S
C1774     Br1785   1.927       .  S
C1775      C1776   1.409       .  A
C1775      C1780   1.415       .  A
C1776      C1777   1.409       .  A
C1776     Br1787   1.931       .  S
C1777      C1778   1.416       .  A
C1777     Br1783   1.933       .  S
C1778      C1779   1.410       .  A
C1779      C1780   1.418       .  A
C1779     Br1788   1.925       .  S
C1780     Br1784   1.927       .  S
C1789      C1790   1.402       .  A
C1789      C1794   1.411       .  A
C1790      C1791   1.400       .  A
C1790     Br1802   1.922   1_655  S
C1791      C1792   1.412       .  A
C1791     Br1806   1.934       .  S
C1792      C1795   1.470       .  S
C1792      C1793   1.404       .  A
C1793      C1794   1.402       .  A
C1793     Br1801   1.930       .  S
C1794     Br1805   1.924       .  S
C1795      C1796   1.404       .  A
C1795      C1800   1.404       .  A
C1796      C1797   1.402       .  A
C1796     Br1807   1.929       .  S
C1797      C1798   1.417       .  A
C1797     Br1803   1.932       .  S
C1798      C1799   1.420       .  A
C1799      C1800   1.405       .  A
C1799     Br1808   1.932       .  S
C1800     Br1804   1.932       .  S
C1809      C1810   1.410       .  A
C1809      C1814   1.406       .  A
C1810      C1811   1.397       .  A
C1810     Br1822   1.914       .  S
C1811      C1812   1.400       .  A
C1811     Br1826   1.934       .  S
C1812      C1815   1.472       .  S
C1812      C1813   1.414       .  A
C1813      C1814   1.408       .  A
C1813     Br1821   1.930   1_455  S
C1814     Br1825   1.928   1_455  S
C1815      C1816   1.407       .  A
C1815      C1820   1.411       .  A
C1816      C1817   1.404       .  A
C1816     Br1827   1.928       .  S
C1817      C1818   1.412       .  A
C1817     Br1823   1.926       .  S
C1818      C1819   1.409       .  A
C1819      C1820   1.401       .  A
C1819     Br1828   1.929       .  S
C1820     Br1824   1.931       .  S
C1829      C1830   1.405       .  A
C1829      C1834   1.407   1_455  A
C1830      C1831   1.400       .  A
C1830     Br1842   1.929       .  S
C1831      C1832   1.406       .  A
C1831     Br1846   1.929       .  S
C1832      C1835   1.453       .  S
C1832      C1833   1.403   1_455  A
C1833      C1834   1.389       .  A
C1833     Br1841   1.935       .  S
C1834     Br1845   1.932       .  S
C1835      C1836   1.400       .  A
C1835      C1840   1.402   1_455  A
C1836      C1837   1.396       .  A
C1836     Br1847   1.935       .  S
C1837      C1838   1.418       .  A
C1837     Br1843   1.934       .  S
C1838      C1839   1.417   1_455  A
C1839      C1840   1.397       .  A
C1839     Br1848   1.937       .  S
C1840     Br1844   1.935       .  S
C1849      C1850   1.425       .  A
C1849      C1854   1.428       .  A
C1850      C1851   1.418       .  A
C1850     Br1862   1.933       .  S
C1851      C1852   1.410       .  A
C1851     Br1866   1.932       .  S
C1852      C1855   1.502       .  S
C1852      C1853   1.405       .  A
C1853      C1854   1.414       .  A
C1853     Br1861   1.932   1_455  S
C1854     Br1865   1.932   1_455  S
C1855      C1856   1.413       .  A
C1855      C1860   1.409   1_455  A
C1856      C1857   1.419       .  A
C1856     Br1867   1.927       .  S
C1857      C1858   1.414       .  A
C1857     Br1863   1.926       .  S
C1858      C1859   1.415   1_455  A
C1859      C1860   1.410       .  A
C1859     Br1868   1.931       .  S
C1860     Br1864   1.931       .  S
C1869      C1870   1.415   1_455  A
C1869      C1874   1.419       .  A
C1870      C1871   1.415       .  A
C1870     Br1882   1.929       .  S
C1871      C1872   1.413   1_655  A
C1871     Br1886   1.930       .  S
C1872      C1875   1.497       .  S
C1872      C1873   1.405       .  A
C1873      C1874   1.409       .  A
C1873     Br1881   1.931       .  S
C1874     Br1885   1.923       .  S
C1875      C1876   1.412   1_455  A
C1875      C1880   1.409       .  A
C1876      C1877   1.416       .  A
C1876     Br1887   1.928       .  S
C1877      C1878   1.411   1_655  A
C1877     Br1883   1.925       .  S
C1878      C1879   1.416       .  A
C1879      C1880   1.409       .  A
C1879     Br1888   1.932       .  S
C1880     Br1884   1.932       .  S
C1889      C1890   1.412       .  A
C1889      C1894   1.410   1_655  A
C1890      C1891   1.399       .  A
C1890     Br1902   1.929       .  S
C1891      C1892   1.403       .  A
C1891     Br1906   1.932       .  S
C1892      C1895   1.466       .  S
C1892      C1893   1.407   1_655  A
C1893      C1894   1.401       .  A
C1893     Br1901   1.930       .  S
C1894     Br1905   1.932       .  S
C1895      C1896   1.404       .  A
C1895      C1900   1.405   1_655  A
C1896      C1897   1.401       .  A
C1896     Br1907   1.932       .  S
C1897      C1898   1.414       .  A
C1897     Br1903   1.934       .  S
C1898      C1899   1.414   1_655  A
C1899      C1900   1.401       .  A
C1899     Br1908   1.934       .  S
C1900     Br1904   1.933       .  S
