geometry optimzed in LAMMPS
_audit_creation_date              2020-11-30 
_audit_creation_method            'lammps2cif' 
_symmetry_space_group_name_H-M    'P1' 
_symmetry_Int_Tables_number       1 
_symmetry_cell_setting            triclinic 
loop_ 
_symmetry_equiv_pos_as_xyz 
  x,y,z 
_cell_length_a                    23.85146301 
_cell_length_b                    23.88026368030704 
_cell_length_c                    23.90246880539443 
_cell_angle_alpha                 90.8371327544933 
_cell_angle_beta                  90.60990303704479 
_cell_angle_gamma                 90.85350268850213 
loop_ 
_atom_site_label 
_atom_site_type_symbol 
_atom_site_fract_x 
_atom_site_fract_y 
_atom_site_fract_z 
_atom_site_charge 
O1          O  0.16089504  0.44045498  0.06601954    -0.80900
O2          O  0.15805315  0.55566057  0.93542024    -0.80900
O3          O  0.23062023  0.55287167  0.11420856    -0.81000
O4          O  0.21597296  0.44240735  0.88132394    -0.80900
O5          O  0.15924826  0.55771823  0.05487483    -0.81000
O6          O  0.14889572  0.43944842  0.94473102    -0.80900
O7          O  0.22776204  0.54836999  0.87684882    -0.80900
O8          O  0.23827576  0.44488151  0.11584001    -0.81000
C9          C  0.18565471  0.43866062  0.11337304     1.08800
C10         C  0.17707336  0.56048467  0.88642033     1.08700
C11         C  0.17880072  0.56230754  0.10454304     1.08800
C12         C  0.16442977  0.43758169  0.89379854     1.08700
O13         O  0.24904538  0.37414685  0.94147960    -0.80900
O14         O  0.26404440  0.61746512  0.04858044    -0.81000
O15         O  0.33593876  0.44261622  0.04849994    -0.80900
O16         O  0.33511404  0.54952467  0.93285962    -0.80900
O17         O  0.26782778  0.61187534  0.94140874    -0.81000
O18         O  0.26625962  0.38006850  0.04735913    -0.80900
O19         O  0.32490357  0.42640476  0.93355427    -0.80900
O20         O  0.33481455  0.56051960  0.04874062    -0.81000
Co21       Co  0.20661350  0.41644421  0.00012672     1.51500
Co22       Co  0.21226604  0.57770408  0.99496576     1.51700
Co23       Co  0.28417202  0.50033483  0.07441729     1.51600
Co24       Co  0.27630133  0.49177161  0.91430694     1.51500
O25         O  0.24464709  0.49644304  0.99591410    -1.42900
C26         C  0.30074149  0.37829019  0.93022530     1.08700
C27         C  0.31608781  0.60956942  0.05327341     1.08800
C28         C  0.31831218  0.39246762  0.05305625     1.08700
C29         C  0.31857279  0.60008819  0.93001663     1.08700
O30         O  0.76863821  0.44247303  0.12548851    -0.80900
O31         O  0.80710442  0.55657868  0.91455555    -0.80900
O32         O  0.85260337  0.44394853  0.95332793    -0.81000
O33         O  0.83857857  0.56376682  0.05661784    -0.80900
O34         O  0.78894136  0.45612524  0.88716723    -0.81000
O35         O  0.77048288  0.55227830  0.11872963    -0.80900
O36         O  0.81307039  0.63481297  0.96539968    -0.80900
O37         O  0.84407961  0.43685105  0.07269291    -0.81000
C38         C  0.82090623  0.43443352  0.12033518     1.08800
C39         C  0.82247121  0.60835674  0.91982494     1.08700
C40         C  0.83837471  0.44288579  0.90186934     1.08800
C41         C  0.82116641  0.56462318  0.10709429     1.08700
O42         O  0.66621882  0.55187791  0.05648032    -0.80900
O43         O  0.67932649  0.44483926  0.93592149    -0.81000
O44         O  0.74067606  0.37438435  0.05414125    -0.80900
O45         O  0.71088980  0.58706551  0.94567224    -0.80900
O46         O  0.70596138  0.53609987  0.86701855    -0.81000
O47         O  0.66901246  0.43250811  0.05938177    -0.80900
O48         O  0.73320540  0.61509784  0.04715824    -0.80900
O49         O  0.74736879  0.38345680  0.94477428    -0.81000
Co50       Co  0.71876142  0.49462252  0.08481457     1.51500
Co51       Co  0.73843462  0.50450799  0.93247633     1.51700
Co52       Co  0.79630607  0.41486987  0.00667467     1.51600
Co53       Co  0.78014544  0.56866100  0.99709408     1.51500
O54         O  0.75875407  0.48980762  0.01134556    -1.42900
C55         C  0.68296255  0.60265711  0.05916173     1.08700
C56         C  0.69631429  0.39439315  0.93369767     1.08800
C57         C  0.68859969  0.38326026  0.06095356     1.08700
C58         C  0.69312533  0.57999339  0.89484538     1.08700
O59         O  0.43734584  0.06346931  0.32823710    -0.80900
O60         O  0.54520202  0.93748320  0.33403014    -0.80900
O61         O  0.37113450  0.95501569  0.25010533    -0.81000
O62         O  0.61690263  0.04567836  0.26366215    -0.80900
O63         O  0.42440763  0.94668137  0.32505928    -0.81000
O64         O  0.55583926  0.05528785  0.33119472    -0.80900
O65         O  0.60683003  0.93863106  0.26614485    -0.80900
O66         O  0.38082552  0.06244508  0.25500435    -0.81000
C67         C  0.38872195  0.06963740  0.30734262     1.08800
C68         C  0.59556430  0.93244181  0.31745469     1.08700
C69         C  0.37595899  0.94830504  0.30238472     1.08800
C70         C  0.60593928  0.05767371  0.31426613     1.08700
O71         O  0.55745554  0.11284900  0.22479851    -0.80900
O72         O  0.43287225  0.88645264  0.21819339    -0.81000
O73         O  0.44544836  0.06433516  0.15234277    -0.80900
O74         O  0.55113612  0.93284734  0.15822149    -0.80900
O75         O  0.53934075  0.87576300  0.22833538    -0.81000
O76         O  0.45085099  0.12337299  0.22324702    -0.80900
O77         O  0.56020968  0.05042794  0.15597388    -0.80900
O78         O  0.43633646  0.94726144  0.14949618    -0.81000
Co79       Co  0.49983720  0.08103071  0.27674602     1.51500
Co80       Co  0.48587311  0.91939348  0.27641230     1.51700
Co81       Co  0.41606044  0.00665234  0.20255861     1.51600
Co82       Co  0.57600480  0.99255949  0.21099279     1.51500
O83         O  0.49449573  0.99978835  0.24203084    -1.42900
C84         C  0.56701389  0.10016723  0.17391650     1.08700
C85         C  0.42840626  0.89787006  0.16641515     1.08800
C86         C  0.44178653  0.11375671  0.17149353     1.08700
C87         C  0.55350249  0.88397192  0.17795248     1.08700
O88         O  0.41289012  0.04853493  0.71779869    -0.80900
O89         O  0.63128144  0.94527043  0.73929613    -0.80900
O90         O  0.55726121  0.06306588  0.67738281    -0.81000
O91         O  0.45322119  0.94064190  0.66627964    -0.80900
O92         O  0.62237076  0.05466123  0.74399451    -0.81000
O93         O  0.39192988  0.94801656  0.73427180    -0.80900
O94         O  0.57302514  0.93890850  0.66661508    -0.80900
O95         O  0.45980913  0.12841477  0.70579188    -0.81000
C96         C  0.41427700  0.09961814  0.70137730     1.08800
C97         C  0.62259033  0.93890326  0.68699407     1.08700
C98         C  0.60893588  0.06550174  0.69350168     1.08800
C99         C  0.40315428  0.93678457  0.68342310     1.08700
O100        O  0.44977700  0.93777811  0.83907631    -0.80900
O101        O  0.56689206  0.05164385  0.84985393    -0.81000
O102        O  0.44975553  0.08391764  0.80909224    -0.80900
O103        O  0.56630766  0.87374197  0.76571049    -0.80900
O104        O  0.57528251  0.92739197  0.84208825    -0.81000
O105        O  0.37604533  0.02762722  0.82196474    -0.80900
O106        O  0.45695546  0.87656517  0.76865676    -0.80900
O107        O  0.54860071  0.11359079  0.78439154    -0.81000
Co108      Co  0.43955636  0.99815718  0.78367911     1.51500
Co109      Co  0.59340732  0.99432471  0.79426378     1.51700
Co110      Co  0.49842230  0.06521218  0.73741576     1.51600
Co111      Co  0.51236342  0.91283852  0.71697295     1.51500
O112        O  0.51707813  0.98730435  0.75773210    -1.42900
C113        C  0.44648075  0.88754258  0.81989522     1.08700
C114        C  0.56499758  0.10254211  0.83369576     1.08800
C115        C  0.40121042  0.07452449  0.83110695     1.08700
C116        C  0.57753114  0.87924243  0.81761674     1.08700
O117        O  0.04972086  0.33119712  0.42951485    -0.80900
O118        O  0.95054984  0.33098004  0.57033722    -0.80900
O119        O  0.93522382  0.25881623  0.39257035    -0.81000
O120        O  0.06907612  0.27285480  0.61214569    -0.80900
O121        O  0.93715599  0.33003366  0.45253123    -0.81000
O122        O  0.06394417  0.34069196  0.55000658    -0.80900
O123        O  0.96313793  0.26173853  0.62819036    -0.80900
O124        O  0.04116024  0.25568938  0.37665599    -0.81000
C125        C  0.04828382  0.30814263  0.38123479     1.08800
C126        C  0.95034012  0.31245764  0.61975034     1.08700
C127        C  0.92579146  0.31005367  0.40432842     1.08800
C128        C  0.07117548  0.32461706  0.60026581     1.08700
O129        O  0.12963794  0.24249968  0.54201250    -0.80900
O130        O  0.87870097  0.22313056  0.46380327    -0.81000
O131        O  0.05536802  0.15559313  0.44151612    -0.80900
O132        O  0.95461913  0.15422310  0.57124187    -0.80900
O133        O  0.89344183  0.22279899  0.56961820    -0.81000
O134        O  0.11407726  0.22778655  0.43673500    -0.80900
O135        O  0.08048640  0.16553198  0.55860263    -0.80900
O136        O  0.93772785  0.15421512  0.45490856    -0.81000
Co137      Co  0.08146955  0.28481497  0.49039423     1.51500
Co138      Co  0.92283521  0.27673970  0.51315834     1.51700
Co139      Co  0.99327132  0.20658307  0.42416733     1.51600
Co140      Co  0.01580759  0.21298685  0.58428628     1.51500
O141        O  0.00362589  0.24482075  0.50324657    -1.42900
C142        C  0.12786433  0.19152376  0.55535401     1.08700
C143        C  0.88819302  0.17216438  0.45219004     1.08800
C144        C  0.10338711  0.17555246  0.43011187     1.08700
C145        C  0.90411081  0.17142287  0.57688440     1.08700
O146        O  0.04145371  0.73363687  0.37839573    -0.80900
O147        O  0.94727347  0.75379541  0.62415988    -0.80900
O148        O  0.04765284  0.66456016  0.55652495    -0.81000
O149        O  0.92527122  0.66998909  0.45016505    -0.80900
O150        O  0.05251559  0.73531108  0.61701247    -0.81000
O151        O  0.93452869  0.73752754  0.38851152    -0.80900
O152        O  0.93142456  0.67931277  0.57160388    -0.80900
O153        O  0.04378442  0.66386929  0.43730997    -0.81000
C154        C  0.04958865  0.68211944  0.38796040     1.08800
C155        C  0.93076002  0.70332179  0.61947138     1.08700
C156        C  0.05603914  0.68319314  0.60584256     1.08800
C157        C  0.92318737  0.68675934  0.39972527     1.08700
O158        O  0.93667690  0.84583906  0.44240830    -0.80900
O159        O  0.06974811  0.83869068  0.55368286    -0.81000
O160        O  0.11125892  0.76421177  0.44265291    -0.80900
O161        O  0.88508581  0.79173844  0.55852925    -0.80900
O162        O  0.95478528  0.85361105  0.55745254    -0.81000
O163        O  0.05916203  0.83958466  0.43837624    -0.80900
O164        O  0.87401930  0.77836439  0.45327675    -0.80900
O165        O  0.12024645  0.76326217  0.55107501    -0.81000
Co166      Co  0.99354712  0.78928609  0.41991844     1.51500
Co167      Co  0.00577899  0.79453095  0.58039470     1.51700
Co168      Co  0.07294262  0.71498808  0.49740079     1.51600
Co169      Co  0.91199716  0.72913654  0.50808569     1.51500
O170        O  0.99593036  0.75661035  0.50119234    -1.42900
C171        C  0.88579558  0.82840279  0.44054655     1.08700
C172        C  0.11667840  0.81578760  0.55956812     1.08800
C173        C  0.10714374  0.81666928  0.43690853     1.08700
C174        C  0.90386338  0.84168763  0.56575472     1.08700
C175        C  0.67251899  0.92930481  0.65282603    -0.06000
C176        C  0.67357042  0.93757536  0.59486364    -0.06000
C177        C  0.72405514  0.93191030  0.56588262    -0.24100
C178        C  0.77327791  0.91676589  0.59450514     0.18100
C179        C  0.77220121  0.90975052  0.65293864     0.15300
C180        C  0.72224152  0.91562011  0.68126080    -0.19200
C181        C  0.82070718  0.89473025  0.68221230    -0.21000
C182        C  0.86826117  0.87979369  0.65289212    -0.13500
C183        C  0.86798590  0.88131238  0.59441478     0.03100
C184        C  0.82256035  0.90452092  0.56589383    -0.25700
H185        H  0.63594358  0.94930333  0.57240968     0.08200
H186        H  0.72450211  0.93849354  0.52117868     0.11800
H187        H  0.72231095  0.90906869  0.72606700     0.11700
H188        H  0.82048328  0.89030780  0.72731623     0.11500
H189        H  0.90313641  0.86178086  0.67540196     0.12000
H190        H  0.82421861  0.90886347  0.52092623     0.14000
C191        C  0.35892319  0.91282954  0.64703680    -0.06000
C192        C  0.36515766  0.85830627  0.62577325    -0.06000
C193        C  0.31915660  0.82900328  0.60290940    -0.24100
C194        C  0.26663563  0.85441062  0.60003759     0.18100
C195        C  0.26121553  0.91108151  0.61676858     0.15300
C196        C  0.30733967  0.93979278  0.64117683    -0.19200
C197        C  0.20916572  0.93706749  0.61104448    -0.21000
C198        C  0.16244623  0.90649739  0.59099808    -0.13500
C199        C  0.16670549  0.84916980  0.57763311     0.03100
C200        C  0.21917978  0.82351401  0.58236856    -0.25700
H201        H  0.40470714  0.83702537  0.63043524     0.08200
H202        H  0.32420485  0.78592675  0.58926427     0.11800
H203        H  0.30270630  0.98205259  0.65749090     0.11700
H204        H  0.20442107  0.98071641  0.62279094     0.11500
H205        H  0.12264244  0.92743187  0.58730862     0.12000
H206        H  0.22321106  0.77934940  0.57237931     0.14000
C207        C  0.65617701  0.08271509  0.65643573    -0.06000
C208        C  0.65025102  0.12516619  0.61698997    -0.06000
C209        C  0.69780895  0.14850037  0.59136943    -0.24100
C210        C  0.75192450  0.12849241  0.60327402     0.18100
C211        C  0.75813819  0.08283731  0.63909599     0.15300
C212        C  0.71054954  0.06144705  0.66657957    -0.19200
C213        C  0.81224129  0.06160483  0.64905092    -0.21000
C214        C  0.86014159  0.08723792  0.62580809    -0.13500
C215        C  0.85488674  0.13557785  0.59355418     0.03100
C216        C  0.80010003  0.15528468  0.58238171    -0.25700
H217        H  0.60946223  0.14276437  0.60875964     0.08200
H218        H  0.69244082  0.18338833  0.56342115     0.11800
H219        H  0.71625667  0.02968849  0.69787433     0.11700
H220        H  0.81767696  0.02605501  0.67614262     0.11500
H221        H  0.90125612  0.07128522  0.63573564     0.12000
H222        H  0.79487674  0.19364865  0.55964035     0.14000
C223        C  0.35929735  0.12130596  0.68227167    -0.06000
C224        C  0.31218763  0.10647436  0.71439997    -0.06000
C225        C  0.25766714  0.11415486  0.69495302    -0.24100
C226        C  0.24826059  0.13651927  0.64225055     0.18100
C227        C  0.29496098  0.15354141  0.60988636     0.15300
C228        C  0.35041067  0.14602047  0.63009633    -0.19200
C229        C  0.28513249  0.17748446  0.55779575    -0.21000
C230        C  0.23025153  0.18579189  0.53895470    -0.13500
C231        C  0.18336831  0.16818215  0.57024455     0.03100
C232        C  0.19292459  0.14304163  0.62195992    -0.25700
H233        H  0.31732113  0.08643881  0.75398299     0.08200
H234        H  0.22279673  0.10124395  0.72083437     0.11800
H235        H  0.38607188  0.15678310  0.60438158     0.11700
H236        H  0.31983347  0.19136368  0.53226820     0.11500
H237        H  0.22421446  0.20767617  0.50002289     0.12000
H238        H  0.15749591  0.13200599  0.64791361     0.14000
C239        C  0.83886831  0.86209406  0.41902583    -0.06000
C240        C  0.84619842  0.89651176  0.37270679    -0.06000
C241        C  0.79952607  0.91813871  0.34494689    -0.24100
C242        C  0.74506366  0.90768604  0.36461087     0.18100
C243        C  0.73721257  0.87633958  0.41332213     0.15300
C244        C  0.78398397  0.85202041  0.43899920    -0.19200
C245        C  0.68257312  0.86818756  0.43398642    -0.21000
C246        C  0.63591722  0.88949441  0.40530877    -0.13500
C247        C  0.64323675  0.91727270  0.35454675     0.03100
C248        C  0.69823865  0.92613921  0.33486923    -0.25700
H249        H  0.88757318  0.90352265  0.35574411     0.08200
H250        H  0.80591900  0.94188079  0.30726626     0.11800
H251        H  0.77779658  0.82490115  0.47442670     0.11700
H252        H  0.67592849  0.84476034  0.47184517     0.11500
H253        H  0.59421488  0.88175750  0.42121484     0.12000
H254        H  0.70479558  0.94580141  0.29501022     0.14000
C255        C  0.32354230  0.94189690  0.33402907    -0.06000
C256        C  0.27432260  0.96630445  0.31302357    -0.06000
C257        C  0.22211482  0.95407711  0.33583316    -0.24100
C258        C  0.21755964  0.91411610  0.37766275     0.18100
C259        C  0.26701805  0.88986228  0.39956165     0.15300
C260        C  0.31990199  0.90567480  0.37925593    -0.19200
C261        C  0.26253895  0.84617284  0.43730175    -0.21000
C262        C  0.21005643  0.82393678  0.44964101    -0.13500
C263        C  0.16045576  0.84764464  0.42866165     0.03100
C264        C  0.16438046  0.89436450  0.39418009    -0.25700
H265        H  0.27601976  0.99380714  0.27744471     0.08200
H266        H  0.18506757  0.97291009  0.31805553     0.11800
H267        H  0.35741095  0.88565765  0.39471934     0.11700
H268        H  0.29962854  0.82635645  0.45391397     0.11500
H269        H  0.20839813  0.78635706  0.47431719     0.12000
H270        H  0.12663781  0.91168453  0.37621322     0.14000
C271        C  0.84189531  0.13748348  0.42909767    -0.06000
C272        C  0.85209695  0.09555161  0.38896390    -0.06000
C273        C  0.80750418  0.07112301  0.35860958    -0.24100
C274        C  0.75217027  0.08658350  0.36989265     0.18100
C275        C  0.74147206  0.12607181  0.41269166     0.15300
C276        C  0.78641079  0.15253763  0.44055408    -0.19200
C277        C  0.68609138  0.14019667  0.42533067    -0.21000
C278        C  0.64145915  0.11551723  0.39529248    -0.13500
C279        C  0.65188876  0.07825967  0.35087445     0.03100
C280        C  0.70747199  0.06474313  0.33788801    -0.25700
H281        H  0.89459715  0.08434659  0.37851710     0.08200
H282        H  0.81635778  0.04114901  0.32561970     0.11800
H283        H  0.77807027  0.18664935  0.46915752     0.11700
H284        H  0.67735253  0.17058538  0.45801890     0.11500
H285        H  0.59902426  0.12748696  0.40508562     0.12000
H286        H  0.71615979  0.03834627  0.30208331     0.14000
C287        C  0.14456117  0.14216649  0.39955811    -0.06000
C288        C  0.14753461  0.14966795  0.34166675    -0.06000
C289        C  0.19551052  0.13494967  0.31263296    -0.24100
C290        C  0.24196039  0.11415199  0.34149275     0.18100
C291        C  0.23858254  0.10336278  0.39927856     0.15300
C292        C  0.18872846  0.11575007  0.42770084    -0.19200
C293        C  0.28600240  0.08308157  0.42766562    -0.21000
C294        C  0.33625422  0.07402742  0.39888181    -0.13500
C295        C  0.33943060  0.08463826  0.34131699     0.03100
C296        C  0.29201529  0.10516164  0.31333309    -0.25700
H297        H  0.11399995  0.17033320  0.31949653     0.08200
H298        H  0.19742693  0.14280428  0.26812990     0.11800
H299        H  0.18554387  0.10800720  0.47192364     0.11700
H300        H  0.28431703  0.07464041  0.47201346     0.11500
H301        H  0.37197286  0.05736851  0.42114496     0.12000
H302        H  0.29375517  0.11367602  0.26892911     0.14000
C303        C  0.57690829  0.83689132  0.14526089    -0.06000
C304        C  0.60830592  0.84652345  0.09689435    -0.06000
C305        C  0.63425591  0.80207204  0.06916236    -0.24100
C306        C  0.62754319  0.74708651  0.08825661     0.18100
C307        C  0.59454262  0.73678524  0.13576411     0.15300
C308        C  0.57128912  0.78182600  0.16497542    -0.19200
C309        C  0.58623901  0.68168782  0.15394241    -0.21000
C310        C  0.61162889  0.63714858  0.12602849    -0.13500
C311        C  0.64699534  0.64733636  0.08071809     0.03100
C312        C  0.65443144  0.70238257  0.06168684    -0.25700
H313        H  0.61427522  0.88860758  0.08154169     0.08200
H314        H  0.65960336  0.81068878  0.03282268     0.11800
H315        H  0.54888488  0.77381286  0.20331025     0.11700
H316        H  0.56087837  0.67315400  0.19026593     0.11500
H317        H  0.60627697  0.59514292  0.14186101     0.12000
H318        H  0.68214650  0.71048988  0.02693382     0.14000
C319        C  0.58864147  0.14435566  0.13800001    -0.06000
C320        C  0.63208157  0.13448201  0.10026668    -0.06000
C321        C  0.65922360  0.17967697  0.07494567    -0.24100
C322        C  0.64139610  0.23463039  0.08555109     0.18100
C323        C  0.59502945  0.24395422  0.12030459     0.15300
C324        C  0.57057668  0.19903222  0.14769699    -0.19200
C325        C  0.57583705  0.29838393  0.12979218    -0.21000
C326        C  0.60389514  0.34390524  0.10671119    -0.13500
C327        C  0.65267019  0.33548771  0.07576474     0.03100
C328        C  0.67088366  0.28062641  0.06480039    -0.25700
H329        H  0.64735449  0.09245293  0.09332781     0.13600
H330        H  0.69489380  0.17185975  0.04851427     0.11800
H331        H  0.53954050  0.20690790  0.17910806     0.11700
H332        H  0.54033909  0.30581169  0.15644971     0.11500
H333        H  0.58952393  0.38579449  0.11608460     0.12000
H334        H  0.70927859  0.27371213  0.04230187     0.14000
C335        C  0.59660996  0.82723000  0.84486539    -0.06000
C336        C  0.58585694  0.81439130  0.90086990    -0.06000
C337        C  0.59808099  0.76077106  0.92114306    -0.24100
C338        C  0.62132529  0.71958417  0.88572690     0.18100
C339        C  0.63192161  0.73239737  0.82950140     0.15300
C340        C  0.62034146  0.78583723  0.80997202    -0.19200
C341        C  0.65438709  0.69175640  0.79341557    -0.21000
C342        C  0.66935143  0.63940543  0.81357337    -0.13500
C343        C  0.66214306  0.62692864  0.87011633     0.03100
C344        C  0.63609816  0.66655495  0.90560578    -0.25700
H345        H  0.56643002  0.84486917  0.92816844     0.08200
H346        H  0.58891711  0.75131726  0.96426850     0.11800
H347        H  0.62921297  0.79495818  0.76662078     0.11700
H348        H  0.66228763  0.70119790  0.74998535     0.11500
H349        H  0.69016019  0.61026077  0.78587028     0.12000
H350        H  0.63013188  0.65716369  0.94933086     0.14000
C351        C  0.58685295  0.15002868  0.86831817    -0.06000
C352        C  0.63464116  0.14345757  0.90205486    -0.06000
C353        C  0.66411540  0.19045936  0.92290720    -0.24100
C354        C  0.64539351  0.24465715  0.91153277     0.18100
C355        C  0.59519576  0.25188593  0.88113793     0.15300
C356        C  0.56678919  0.20453490  0.85887208    -0.19200
C357        C  0.57609976  0.30642013  0.87115397    -0.21000
C358        C  0.60736889  0.35338687  0.89005946    -0.13500
C359        C  0.65904126  0.34640780  0.91746998     0.03100
C360        C  0.67743726  0.29167478  0.92802107    -0.25700
H361        H  0.65153863  0.10222432  0.90883950     0.08200
H362        H  0.70269262  0.18447615  0.94622320     0.11800
H363        H  0.53081166  0.21032073  0.83163146     0.11700
H364        H  0.53761934  0.31277333  0.84781292     0.11500
H365        H  0.59227433  0.39495829  0.88135438     0.12000
H366        H  0.71762928  0.28538260  0.94821075     0.14000
C367        C  0.84855716  0.63432190  0.87016162    -0.06000
C368        C  0.87623273  0.68649758  0.87258504    -0.06000
C369        C  0.89785167  0.71004536  0.82369092    -0.24100
C370        C  0.89210755  0.68172009  0.77177714     0.18100
C371        C  0.86450869  0.62928106  0.76892461     0.15300
C372        C  0.84238570  0.60650825  0.81777023    -0.19200
C373        C  0.85896866  0.60075088  0.71719022    -0.21000
C374        C  0.88144343  0.62367885  0.66847961    -0.13500
C375        C  0.90853189  0.67621413  0.67053826     0.03100
C376        C  0.91297838  0.70518168  0.72258997    -0.25700
H377        H  0.88087906  0.70906588  0.91200124     0.08200
H378        H  0.91896220  0.75050061  0.82643004     0.11800
H379        H  0.81890708  0.56739289  0.81455842     0.11700
H380        H  0.83704884  0.56072826  0.71444045     0.11500
H381        H  0.87681050  0.60084736  0.62918642     0.12000
H382        H  0.93356711  0.74589934  0.72515753     0.14000
C383        C  0.90592897  0.65054704  0.35159140    -0.06000
C384        C  0.87821621  0.59879131  0.35747498    -0.06000
C385        C  0.85897920  0.56892312  0.30977847    -0.24100
C386        C  0.86877533  0.58982424  0.25586536     0.18100
C387        C  0.89869010  0.64055111  0.24986758     0.15300
C388        C  0.91501988  0.67114775  0.29743014    -0.19200
C389        C  0.91016888  0.66111934  0.19638060    -0.21000
C390        C  0.88994506  0.63276933  0.14870130    -0.13500
C391        C  0.85635910  0.58473106  0.15422338     0.03100
C392        C  0.84692738  0.56270926  0.20790299    -0.25700
H393        H  0.86988486  0.58247464  0.39863072     0.08200
H394        H  0.83602581  0.52985683  0.31499392     0.11800
H395        H  0.93452318  0.71194050  0.29187149     0.11700
H396        H  0.93334935  0.70009719  0.19151894     0.11500
H397        H  0.89674492  0.65078341  0.10796441     0.12000
H398        H  0.82013872  0.52602098  0.21249751     0.14000
C399        C  0.93387930  0.34785612  0.66804643    -0.06000
C400        C  0.92147372  0.40469530  0.66177085    -0.06000
C401        C  0.90483546  0.43694630  0.70787539    -0.24100
C402        C  0.90103051  0.41300445  0.76104864     0.18100
C403        C  0.91601668  0.35660776  0.76817273     0.15300
C404        C  0.93099827  0.32422501  0.72162790    -0.19200
C405        C  0.91446350  0.33305932  0.82156577    -0.21000
C406        C  0.89478346  0.36409323  0.86700834    -0.13500
C407        C  0.87509730  0.41847777  0.85933757     0.03100
C408        C  0.87995309  0.44341616  0.80667281    -0.25700
H409        H  0.92397277  0.42403649  0.62114828     0.08200
H410        H  0.89441744  0.48036526  0.70179515     0.11800
H411        H  0.94083704  0.28047991  0.72735842     0.11700
H412        H  0.92668032  0.29003944  0.82779716     0.11500
H413        H  0.89065499  0.34402215  0.90713457     0.12000
H414        H  0.86468825  0.48529730  0.80057079     0.14000
C415        C  0.85134942  0.41801131  0.17121869    -0.06000
C416        C  0.90510544  0.43878042  0.18526718    -0.06000
C417        C  0.92823166  0.42841749  0.23837492    -0.24100
C418        C  0.89853376  0.39567314  0.27700589     0.18100
C419        C  0.84498084  0.37389418  0.26200223     0.15300
C420        C  0.82184873  0.38558885  0.20985125    -0.19200
C421        C  0.81556784  0.33951773  0.29880279    -0.21000
C422        C  0.84090540  0.32288754  0.34830969    -0.13500
C423        C  0.89489579  0.34220994  0.36282267     0.03100
C424        C  0.92218849  0.38159028  0.32903945    -0.25700
H425        H  0.92794193  0.46479725  0.15631547     0.08200
H426        H  0.96942942  0.44541778  0.24899199     0.11800
H427        H  0.78038598  0.36916731  0.19909784     0.11700
H428        H  0.77433576  0.32286840  0.28780453     0.11500
H429        H  0.81958003  0.29232729  0.37394662     0.12000
H430        H  0.96329164  0.39757150  0.34102356     0.14000
C431        C  0.42434163  0.84117367  0.85403513    -0.06000
C432        C  0.37493106  0.84889884  0.88409618    -0.06000
C433        C  0.34570137  0.80292140  0.90529084    -0.24100
C434        C  0.36636401  0.74855307  0.89834214     0.18100
C435        C  0.41809325  0.74025152  0.87179170     0.15300
C436        C  0.44634780  0.78666950  0.84870928    -0.19200
C437        C  0.43906631  0.68548597  0.86709040    -0.21000
C438        C  0.40825512  0.63944375  0.88753708    -0.13500
C439        C  0.35542617  0.64734787  0.91171534     0.03100
C440        C  0.33501371  0.70235489  0.91628266    -0.25700
H441        H  0.35682065  0.89012701  0.88782210     0.08200
H442        H  0.30610929  0.80974119  0.92585285     0.11800
H443        H  0.48424335  0.78022907  0.82496577     0.11700
H444        H  0.47897903  0.67826355  0.84719809     0.11500
H445        H  0.42494743  0.59769148  0.88299600     0.12000
H446        H  0.29384340  0.70959397  0.93326399     0.14000
C447        C  0.32983933  0.32548086  0.91390526    -0.06000
C448        C  0.38845050  0.32240847  0.91097618    -0.06000
C449        C  0.41426271  0.27107093  0.89915594    -0.24100
C450        C  0.38202708  0.22188051  0.88959199     0.18100
C451        C  0.32322963  0.22418734  0.89288661     0.15300
C452        C  0.29763698  0.27571370  0.90461749    -0.19200
C453        C  0.29094769  0.17497867  0.88381025    -0.21000
C454        C  0.31652705  0.12455144  0.86838622    -0.13500
C455        C  0.37487529  0.12226682  0.86176495     0.03100
C456        C  0.40736813  0.17086613  0.87490463    -0.25700
H457        H  0.41432498  0.35941750  0.91869555     0.08200
H458        H  0.45950385  0.26979090  0.89742436     0.11800
H459        H  0.25233250  0.27680501  0.90694317     0.11700
H460        H  0.24570553  0.17594077  0.88674713     0.11500
H461        H  0.29030085  0.08823584  0.85845276     0.12000
H462        H  0.45242290  0.16964378  0.87104734     0.14000
C463        C  0.35262085  0.65801629  0.06602181    -0.06000
C464        C  0.40163811  0.65178973  0.09785086    -0.06000
C465        C  0.42934226  0.69893803  0.12012793    -0.24100
C466        C  0.40921900  0.75256614  0.10912582     0.18100
C467        C  0.36334429  0.75943602  0.07236199     0.15300
C468        C  0.33444113  0.71195662  0.05221328    -0.19200
C469        C  0.34477676  0.81353219  0.06005709    -0.21000
C470        C  0.36939285  0.86021487  0.08712498    -0.13500
C471        C  0.41129472  0.85264414  0.12776332     0.03100
C472        C  0.43149106  0.79901191  0.13771191    -0.25700
H473        H  0.41608759  0.61057755  0.10892543     0.08200
H474        H  0.46487100  0.69341824  0.14787522     0.11800
H475        H  0.29595519  0.71704740  0.02854519     0.11700
H476        H  0.30984966  0.81946977  0.03153904     0.11500
H477        H  0.35291810  0.90150945  0.07951520     0.12000
H478        H  0.46178763  0.79304707  0.17066157     0.14000
C479        C  0.35626701  0.34847163  0.07115143    -0.06000
C480        C  0.39394291  0.35956216  0.11539010    -0.06000
C481        C  0.41933546  0.31545796  0.14295872    -0.24100
C482        C  0.40952963  0.26008874  0.12466689     0.18100
C483        C  0.37612394  0.24903238  0.07662076     0.15300
C484        C  0.34812817  0.29322608  0.05133146    -0.19200
C485        C  0.36876122  0.19369540  0.05693200    -0.21000
C486        C  0.39293219  0.14948919  0.08594320    -0.13500
C487        C  0.42281989  0.15999943  0.13604879     0.03100
C488        C  0.43030758  0.21552365  0.15526722    -0.25700
H489        H  0.40004123  0.40182179  0.13160615     0.08200
H490        H  0.44502113  0.32453492  0.17972211     0.11800
H491        H  0.31782959  0.28428535  0.01834554     0.11700
H492        H  0.34361989  0.18459250  0.01977717     0.11500
H493        H  0.38589446  0.10697673  0.07074699     0.12000
H494        H  0.45091409  0.22425923  0.19509314     0.14000
C495        C  0.14291565  0.58181112  0.83967992    -0.06000
C496        C  0.08879513  0.60267953  0.84753784    -0.06000
C497        C  0.05892661  0.62462270  0.80228384    -0.24100
C498        C  0.08217440  0.62421186  0.74848275     0.18100
C499        C  0.13547002  0.60096524  0.74007292     0.15300
C500        C  0.16611908  0.58223304  0.78581486    -0.19200
C501        C  0.15791259  0.59789769  0.68615980    -0.21000
C502        C  0.12867599  0.61989682  0.64096216    -0.13500
C503        C  0.07773159  0.64692035  0.64958209     0.03100
C504        C  0.05444135  0.64846000  0.70323926    -0.25700
H505        H  0.07018798  0.60310525  0.88865728     0.08200
H506        H  0.01774098  0.64196746  0.80930836     0.11800
H507        H  0.20820250  0.56703732  0.77900053     0.11700
H508        H  0.19868579  0.57965176  0.67917463     0.11500
H509        H  0.14776986  0.61953729  0.60003873     0.12000
H510        H  0.01594785  0.67084521  0.71026234     0.14000
C511        C  0.14324133  0.58160877  0.15171149    -0.06000
C512        C  0.09237628  0.60881921  0.14180057    -0.06000
C513        C  0.06290346  0.63294254  0.18626194    -0.24100
C514        C  0.08206052  0.62754084  0.24172596     0.18100
C515        C  0.13057179  0.59645672  0.25253824     0.15300
C516        C  0.16222189  0.57632430  0.20748518    -0.19200
C517        C  0.14773701  0.58791146  0.30817568    -0.21000
C518        C  0.11807660  0.61178441  0.35267181    -0.13500
C519        C  0.07246996  0.64674351  0.34221312     0.03100
C520        C  0.05509149  0.65463151  0.28633913    -0.25700
H521        H  0.07682710  0.61393491  0.09949421     0.08200
H522        H  0.02557385  0.65633548  0.17713209     0.11800
H523        H  0.20236287  0.55789523  0.21597827     0.11700
H524        H  0.18456257  0.56353868  0.31722168     0.11500
H525        H  0.13315459  0.60604336  0.39508175     0.12000
H526        H  0.02239207  0.68367641  0.27720336     0.14000
C527        C  0.12577982  0.42594311  0.84652015    -0.06000
C528        C  0.08300138  0.38557782  0.85056045    -0.06000
C529        C  0.06053134  0.36064043  0.80184557    -0.24100
C530        C  0.07904448  0.37758164  0.74896393     0.18100
C531        C  0.11721952  0.42260126  0.74449887     0.15300
C532        C  0.14119030  0.44550677  0.79333191    -0.19200
C533        C  0.13480721  0.44016114  0.69138134    -0.21000
C534        C  0.11645920  0.41124322  0.64294693    -0.13500
C535        C  0.08216735  0.36349625  0.64766027     0.03100
C536        C  0.06374420  0.34724844  0.70088016    -0.25700
H537        H  0.07123237  0.36931379  0.89086989     0.08200
H538        H  0.03129989  0.32583445  0.80558034     0.11800
H539        H  0.17609935  0.47423439  0.78965831     0.11700
H540        H  0.16431599  0.47467964  0.68752983     0.11500
H541        H  0.13209635  0.42373105  0.60252752     0.12000
H542        H  0.03971714  0.30886002  0.70530757     0.14000
C543        C  0.15684998  0.42941828  0.16724211    -0.06000
C544        C  0.18543593  0.44563663  0.21697423    -0.06000
C545        C  0.16386186  0.43360467  0.26929584    -0.24100
C546        C  0.11553524  0.40049534  0.27342622     0.18100
C547        C  0.08665943  0.38262425  0.22394944     0.15300
C548        C  0.10608561  0.39935802  0.17106666    -0.19200
C549        C  0.04184097  0.34452058  0.22811072    -0.21000
C550        C  0.02850205  0.32171450  0.27989184    -0.13500
C551        C  0.05698601  0.33942766  0.32913776     0.03100
C552        C  0.09896208  0.38068372  0.32589962    -0.25700
H553        H  0.22582357  0.46682041  0.21556647     0.08200
H554        H  0.18723926  0.44682233  0.30642280     0.11800
H555        H  0.08461456  0.38499072  0.13321308     0.11700
H556        H  0.01927036  0.32984818  0.19100594     0.11500
H557        H  0.99603515  0.28961642  0.28152793     0.12000
H558        H  0.12218708  0.39322033  0.36337644     0.14000
loop_ 
_geom_bond_atom_site_label_1 
_geom_bond_atom_site_label_2 
_geom_bond_distance 
_geom_bond_site_symmetry_2 
_ccdc_geom_bond_type 
O1            C9   1.273       .  A
O1          Co21   2.007       .  S
O2           C10   1.267       .  A
O2          Co22   1.973       .  S
O3           C11   1.279       .  A
O3          Co23   2.037       .  S
O4           C12   1.272       .  A
O4          Co24   1.995       .  S
O5           C11   1.274       .  A
O5          Co22   1.979   1_554  S
O6           C12   1.277       .  A
O6          Co21   1.989   1_556  S
O7           C10   1.270       .  A
O7          Co24   2.007       .  S
O8            C9   1.262       .  A
O8          Co23   1.988       .  S
C9          C543   1.484       .  S
C10         C495   1.477       .  S
C11         C511   1.490       .  S
C12         C527   1.471       .  S
O13          C26   1.268       .  A
O13         Co21   2.007   1_556  S
O14          C27   1.262       .  A
O14         Co22   1.991   1_554  S
O15          C28   1.270       .  A
O15         Co23   1.962       .  S
O16          C29   1.278       .  A
O16         Co24   1.994       .  S
O17          C29   1.278       .  A
O17         Co22   2.024       .  S
O18          C28   1.277       .  A
O18         Co21   2.021       .  S
O19          C26   1.279       .  A
O19         Co24   2.014       .  S
O20          C27   1.263       .  A
O20         Co23   1.973       .  S
Co21         O25   2.107   1_554  S
Co22         O25   2.100       .  S
Co23         O25   2.091   1_554  S
Co24         O25   2.101       .  S
C26         C447   1.497       .  S
C27         C463   1.464       .  S
C28         C479   1.464       .  S
C29         C439   1.494       .  S
O30          C38   1.271       .  A
O30         Co50   1.992       .  S
O31          C39   1.288       .  A
O31         Co51   2.093       .  S
O32          C40   1.272       .  A
O32         Co52   1.986   1_556  S
O33          C41   1.280       .  A
O33         Co53   1.987   1_554  S
O34          C40   1.272       .  A
O34         Co51   1.998       .  S
O35          C41   1.275       .  A
O35         Co50   1.993       .  S
O36          C39   1.275       .  A
O36         Co53   1.923       .  S
O37          C38   1.273       .  A
O37         Co52   1.996       .  S
C38         C415   1.471       .  S
C39         C367   1.485       .  S
C40         C407   1.469       .  S
C41         C391   1.468       .  S
O42          C55   1.272       .  A
O42         Co50   1.990       .  S
O43          C56   1.277       .  A
O43         Co51   1.993       .  S
O44          C57   1.275       .  A
O44         Co52   2.002       .  S
O45          C58   1.290       .  A
O45         Co53   2.104       .  S
O46          C58   1.276       .  A
O46         Co51   1.909       .  S
O47          C57   1.273       .  A
O47         Co50   1.971       .  S
O48          C55   1.267       .  A
O48         Co53   1.985   1_554  S
O49          C56   1.275       .  A
O49         Co52   2.005   1_556  S
Co50         O54   2.010       .  S
Co51         O54   1.979   1_556  S
Co52         O54   2.015       .  S
Co53         O54   1.979   1_556  S
C55         C311   1.470       .  S
C56         C359   1.484       .  S
C57         C327   1.466       .  S
C58         C343   1.479       .  S
O59          C67   1.269       .  A
O59         Co79   1.987       .  S
O60          C68   1.276       .  A
O60         Co80   2.002       .  S
O61          C69   1.266       .  A
O61         Co81   1.997   1_565  S
O62          C70   1.270       .  A
O62         Co82   2.009   1_545  S
O63          C69   1.272       .  A
O63         Co80   1.992       .  S
O64          C70   1.266       .  A
O64         Co79   1.966       .  S
O65          C68   1.269       .  A
O65         Co82   1.999       .  S
O66          C67   1.272       .  A
O66         Co81   2.015       .  S
C67         C295   1.481       .  S
C68         C247   1.487       .  S
C69         C255   1.475       .  S
C70         C279   1.470       .  S
O71          C84   1.273       .  A
O71         Co79   2.010       .  S
O72          C85   1.275       .  A
O72         Co80   2.014       .  S
O73          C86   1.264       .  A
O73         Co81   1.966       .  S
O74          C87   1.267       .  A
O74         Co82   1.970       .  S
O75          C87   1.271       .  A
O75         Co80   2.017       .  S
O76          C86   1.271       .  A
O76         Co79   2.016       .  S
O77          C84   1.265       .  A
O77         Co82   1.959   1_545  S
O78          C85   1.265       .  A
O78         Co81   1.958   1_565  S
Co79         O83   2.100   1_545  S
Co80         O83   2.107       .  S
Co81         O83   2.096   1_545  S
Co82         O83   2.097       .  S
C84         C319   1.462       .  S
C85         C471   1.462       .  S
C86         C487   1.475       .  S
C87         C303   1.479       .  S
O88          C96   1.287       .  A
O88        Co108   2.095   1_545  S
O89          C97   1.272       .  A
O89        Co109   1.982       .  S
O90          C98   1.288       .  A
O90        Co110   2.018       .  S
O91          C99   1.269       .  A
O91        Co111   1.978       .  S
O92          C98   1.277       .  A
O92        Co109   2.009   1_545  S
O93          C99   1.273       .  A
O93        Co108   2.002       .  S
O94          C97   1.274       .  A
O94        Co111   1.990       .  S
O95          C96   1.279       .  A
O95        Co110   1.938       .  S
C96         C223   1.487       .  S
C97         C175   1.470       .  S
C98         C207   1.497       .  S
C99         C191   1.464       .  S
O100        C113   1.279       .  A
O100       Co108   1.988       .  S
O101        C114   1.282       .  A
O101       Co109   2.007   1_545  S
O102        C115   1.295       .  A
O102       Co110   2.125       .  S
O103        C116   1.271       .  A
O103       Co111   1.980       .  S
O104        C116   1.285       .  A
O104       Co109   2.023       .  S
O105        C115   1.278       .  A
O105       Co108   1.916   1_545  S
O106        C113   1.277       .  A
O106       Co111   2.014       .  S
O107        C114   1.270       .  A
O107       Co110   1.980       .  S
Co108       O112   1.976       .  S
Co109       O112   2.014       .  S
Co110       O112   1.985   1_545  S
Co111       O112   2.016       .  S
C113        C431   1.480       .  S
C114        C351   1.479       .  S
C115        C455   1.496       .  S
C116        C335   1.486       .  S
O117        C125   1.271       .  A
O117       Co137   1.992       .  S
O118        C126   1.267       .  A
O118       Co138   1.971       .  S
O119        C127   1.275       .  A
O119       Co139   2.025       .  S
O120        C128   1.273       .  A
O120       Co140   2.000       .  S
O121        C127   1.266       .  A
O121       Co138   1.972       .  S
O122        C128   1.277       .  A
O122       Co137   1.990       .  S
O123        C126   1.272       .  A
O123       Co140   2.018   1_655  S
O124        C125   1.265       .  A
O124       Co139   1.999   1_455  S
C125        C551   1.476       .  S
C126        C399   1.481       .  S
C127        C423   1.463       .  S
C128        C535   1.473       .  S
O129        C142   1.263       .  A
O129       Co137   1.976       .  S
O130        C143   1.269       .  A
O130       Co138   2.007       .  S
O131        C144   1.268       .  A
O131       Co139   1.976   1_455  S
O132        C145   1.286       .  A
O132       Co140   2.028   1_655  S
O133        C145   1.271       .  A
O133       Co138   2.004       .  S
O134        C144   1.277       .  A
O134       Co137   2.026       .  S
O135        C142   1.285       .  A
O135       Co140   2.023       .  S
O136        C143   1.264       .  A
O136       Co139   1.964       .  S
Co137       O141   2.103       .  S
Co138       O141   2.097   1_655  S
Co139       O141   2.098   1_655  S
Co140       O141   2.110       .  S
C142        C231   1.486       .  S
C143        C271   1.468       .  S
C144        C287   1.468       .  S
C145        C215   1.503       .  S
O146        C154   1.272       .  A
O146       Co166   2.022   1_455  S
O147        C155   1.265       .  A
O147       Co167   2.002   1_655  S
O148        C156   1.267       .  A
O148       Co168   1.964       .  S
O149        C157   1.277       .  A
O149       Co169   1.994       .  S
O150        C156   1.273       .  A
O150       Co167   2.018       .  S
O151        C157   1.271       .  A
O151       Co166   1.993       .  S
O152        C155   1.273       .  A
O152       Co169   1.997       .  S
O153        C154   1.272       .  A
O153       Co168   1.985       .  S
C154        C519   1.485       .  S
C155        C375   1.489       .  S
C156        C503   1.463       .  S
C157        C383   1.480       .  S
O158        C171   1.277       .  A
O158       Co166   2.000       .  S
O159        C172   1.261       .  A
O159       Co167   1.960       .  S
O160        C173   1.267       .  A
O160       Co168   1.992       .  S
O161        C174   1.277       .  A
O161       Co169   2.023       .  S
O162        C174   1.262       .  A
O162       Co167   1.957   1_655  S
O163        C173   1.276       .  A
O163       Co166   2.000   1_455  S
O164        C171   1.266       .  A
O164       Co169   1.993       .  S
O165        C172   1.272       .  A
O165       Co168   2.033       .  S
Co166       O170   2.105       .  S
Co167       O170   2.096   1_455  S
Co168       O170   2.104   1_455  S
Co169       O170   2.106       .  S
C171        C239   1.480       .  S
C172        C199   1.482       .  S
C173        C263   1.478       .  S
C174        C183   1.454       .  S
C175        C176   1.403       .  A
C175        C180   1.406       .  A
C176        C177   1.403       .  A
C176        H185   1.083       .  S
C177        C178   1.407       .  A
C177        H186   1.082       .  S
C178        C184   1.399       .  A
C178        C179   1.410       .  A
C179        C181   1.400       .  A
C179        C180   1.385       .  A
C180        H187   1.085       .  S
C181        C182   1.388       .  A
C181        H188   1.085       .  S
C182        C183   1.399       .  A
C182        H189   1.084       .  S
C183        C184   1.400       .  A
C184        H190   1.082       .  S
C191        C192   1.401       .  A
C191        C196   1.404       .  A
C192        C193   1.395       .  A
C192        H201   1.084       .  S
C193        C194   1.401       .  A
C193        H202   1.083       .  S
C194        C200   1.400       .  A
C194        C195   1.414       .  A
C195        C197   1.402       .  A
C195        C196   1.405       .  A
C196        H203   1.084       .  S
C197        C198   1.399       .  A
C197        H204   1.083       .  S
C198        C199   1.407       .  A
C198        H205   1.083       .  S
C199        C200   1.406       .  A
C200        H206   1.084       .  S
C207        C208   1.402       .  A
C207        C212   1.420       .  A
C208        C209   1.406       .  A
C208        H217   1.083       .  S
C209        C210   1.411       .  A
C209        H218   1.084       .  S
C210        C216   1.407       .  A
C210        C211   1.405       .  A
C211        C213   1.413       .  A
C211        C212   1.410       .  A
C212        H219   1.082       .  S
C213        C214   1.411       .  A
C213        H220   1.084       .  S
C214        C215   1.404       .  A
C214        H221   1.083       .  S
C215        C216   1.419       .  A
C216        H222   1.080       .  S
C223        C224   1.411       .  A
C223        C228   1.403       .  A
C224        C225   1.392       .  A
C224        H233   1.073       .  S
C225        C226   1.393       .  A
C225        H234   1.086       .  S
C226        C232   1.413       .  A
C226        C227   1.421       .  A
C227        C229   1.397       .  A
C227        C228   1.418       .  A
C228        H235   1.085       .  S
C229        C230   1.398       .  A
C229        H236   1.084       .  S
C230        C231   1.414       .  A
C230        H237   1.083       .  S
C231        C232   1.400       .  A
C232        H238   1.085       .  S
C239        C240   1.399       .  A
C239        C244   1.417       .  A
C240        C241   1.399       .  A
C240        H249   1.083       .  S
C241        C242   1.406       .  A
C241        H250   1.082       .  S
C242        C248   1.398       .  A
C242        C243   1.406       .  A
C243        C245   1.410       .  A
C243        C244   1.405       .  A
C244        H251   1.084       .  S
C245        C246   1.406       .  A
C245        H252   1.083       .  S
C246        C247   1.403       .  A
C246        H253   1.083       .  S
C247        C248   1.412       .  A
C248        H254   1.080       .  S
C255        C256   1.409       .  A
C255        C260   1.397       .  A
C256        C257   1.393       .  A
C256        H265   1.083       .  S
C257        C258   1.396       .  A
C257        H266   1.083       .  S
C258        C264   1.409       .  A
C258        C259   1.420       .  A
C259        C261   1.393       .  A
C259        C260   1.405       .  A
C260        H267   1.085       .  S
C261        C262   1.389       .  A
C261        H268   1.084       .  S
C262        C263   1.410       .  A
C262        H269   1.082       .  S
C263        C264   1.399       .  A
C264        H270   1.083       .  S
C271        C272   1.402       .  A
C271        C276   1.405       .  A
C272        C273   1.397       .  A
C272        H281   1.083       .  S
C273        C274   1.404       .  A
C273        H282   1.082       .  S
C274        C280   1.396       .  A
C274        C275   1.409       .  A
C275        C277   1.403       .  A
C275        C276   1.394       .  A
C276        H283   1.078       .  S
C277        C278   1.396       .  A
C277        H284   1.083       .  S
C278        C279   1.402       .  A
C278        H285   1.083       .  S
C279        C280   1.406       .  A
C280        H286   1.079       .  S
C287        C288   1.400       .  A
C287        C292   1.406       .  A
C288        C289   1.392       .  A
C288        H297   1.084       .  S
C289        C290   1.400       .  A
C289        H298   1.084       .  S
C290        C296   1.395       .  A
C290        C291   1.412       .  A
C291        C293   1.408       .  A
C291        C292   1.409       .  A
C292        H299   1.079       .  S
C293        C294   1.406       .  A
C293        H300   1.083       .  S
C294        C295   1.405       .  A
C294        H301   1.083       .  S
C295        C296   1.406       .  A
C296        H302   1.085       .  S
C303        C304   1.404       .  A
C303        C308   1.408       .  A
C304        C305   1.399       .  A
C304        H313   1.083       .  S
C305        C306   1.404       .  A
C305        H314   1.084       .  S
C306        C312   1.401       .  A
C306        C307   1.411       .  A
C307        C309   1.404       .  A
C307        C308   1.399       .  A
C308        H315   1.084       .  S
C309        C310   1.397       .  A
C309        H316   1.083       .  S
C310        C311   1.402       .  A
C310        H317   1.084       .  S
C311        C312   1.407       .  A
C312        H318   1.085       .  S
C319        C320   1.401       .  A
C319        C324   1.398       .  A
C320        C321   1.399       .  A
C320        H329   1.084       .  S
C321        C322   1.406       .  A
C321        H330   1.082       .  S
C322        C328   1.396       .  A
C322        C323   1.409       .  A
C323        C325   1.401       .  A
C323        C324   1.389       .  A
C324        H331   1.077       .  S
C325        C326   1.392       .  A
C325        H332   1.080       .  S
C326        C327   1.401       .  A
C326        H333   1.083       .  S
C327        C328   1.408       .  A
C328        H334   1.081       .  S
C335        C336   1.403       .  A
C335        C340   1.413       .  A
C336        C337   1.409       .  A
C336        H345   1.083       .  S
C337        C338   1.412       .  A
C337        H346   1.082       .  S
C338        C344   1.407       .  A
C338        C339   1.407       .  A
C339        C341   1.405       .  A
C339        C340   1.396       .  A
C340        H347   1.084       .  S
C341        C342   1.396       .  A
C341        H348   1.083       .  S
C342        C343   1.400       .  A
C342        H349   1.083       .  S
C343        C344   1.416       .  A
C344        H350   1.083       .  S
C351        C352   1.401       .  A
C351        C356   1.414       .  A
C352        C353   1.398       .  A
C352        H361   1.083       .  S
C353        C354   1.405       .  A
C353        H362   1.083       .  S
C354        C360   1.398       .  A
C354        C355   1.408       .  A
C355        C357   1.409       .  A
C355        C356   1.405       .  A
C356        H363   1.083       .  S
C357        C358   1.404       .  A
C357        H364   1.083       .  S
C358        C359   1.403       .  A
C358        H365   1.083       .  S
C359        C360   1.410       .  A
C360        H366   1.082       .  S
C367        C368   1.401       .  A
C367        C372   1.414       .  A
C368        C369   1.404       .  A
C368        H377   1.082       .  S
C369        C370   1.409       .  A
C369        H378   1.084       .  S
C370        C376   1.403       .  A
C370        C371   1.406       .  A
C371        C373   1.407       .  A
C371        C372   1.400       .  A
C372        H379   1.083       .  S
C373        C374   1.402       .  A
C373        H380   1.083       .  S
C374        C375   1.403       .  A
C374        H381   1.083       .  S
C375        C376   1.417       .  A
C376        H382   1.083       .  S
C383        C384   1.402       .  A
C383        C388   1.409       .  A
C384        C385   1.405       .  A
C384        H393   1.083       .  S
C385        C386   1.409       .  A
C385        H394   1.084       .  S
C386        C392   1.400       .  A
C386        C387   1.407       .  A
C387        C389   1.404       .  A
C387        C388   1.391       .  A
C388        H395   1.084       .  S
C389        C390   1.395       .  A
C389        H396   1.084       .  S
C390        C391   1.398       .  A
C390        H397   1.083       .  S
C391        C392   1.413       .  A
C392        H398   1.084       .  S
C399        C400   1.403       .  A
C399        C404   1.409       .  A
C400        C401   1.400       .  A
C400        H409   1.083       .  S
C401        C402   1.405       .  A
C401        H410   1.081       .  S
C402        C408   1.403       .  A
C402        C403   1.411       .  A
C403        C405   1.403       .  A
C403        C404   1.398       .  A
C404        H411   1.084       .  S
C405        C406   1.395       .  A
C405        H412   1.084       .  S
C406        C407   1.401       .  A
C406        H413   1.083       .  S
C407        C408   1.406       .  A
C408        H414   1.081       .  S
C415        C416   1.403       .  A
C415        C420   1.402       .  A
C416        C417   1.405       .  A
C416        H425   1.083       .  S
C417        C418   1.409       .  A
C417        H426   1.084       .  S
C418        C424   1.408       .  A
C418        C419   1.413       .  A
C419        C421   1.399       .  A
C419        C420   1.392       .  A
C420        H427   1.085       .  S
C421        C422   1.389       .  A
C421        H428   1.084       .  S
C422        C423   1.400       .  A
C422        H429   1.084       .  S
C423        C424   1.405       .  A
C424        H430   1.081       .  S
C431        C432   1.400       .  A
C431        C436   1.415       .  A
C432        C433   1.396       .  A
C432        H441   1.084       .  S
C433        C434   1.404       .  A
C433        H442   1.083       .  S
C434        C440   1.399       .  A
C434        C435   1.409       .  A
C435        C437   1.411       .  A
C435        C436   1.411       .  A
C436        H443   1.084       .  S
C437        C438   1.410       .  A
C437        H444   1.084       .  S
C438        C439   1.406       .  A
C438        H445   1.084       .  S
C439        C440   1.411       .  A
C440        H446   1.082       .  S
C447        C448   1.403       .  A
C447        C452   1.419       .  A
C448        C449   1.406       .  A
C448        H457   1.083       .  S
C449        C450   1.409       .  A
C449        H458   1.081       .  S
C450        C456   1.409       .  A
C450        C451   1.407       .  A
C451        C453   1.408       .  A
C451        C452   1.408       .  A
C452        H459   1.083       .  S
C453        C454   1.404       .  A
C453        H460   1.083       .  S
C454        C455   1.404       .  A
C454        H461   1.084       .  S
C455        C456   1.415       .  A
C456        H462   1.080       .  S
C463        C464   1.399       .  A
C463        C468   1.408       .  A
C464        C465   1.393       .  A
C464        H473   1.083       .  S
C465        C466   1.402       .  A
C465        H474   1.081       .  S
C466        C472   1.390       .  A
C466        C467   1.409       .  A
C467        C469   1.406       .  A
C467        C468   1.395       .  A
C468        H475   1.082       .  S
C469        C470   1.399       .  A
C469        H476   1.083       .  S
C470        C471   1.402       .  A
C470        H477   1.084       .  S
C471        C472   1.398       .  A
C472        H478   1.076       .  S
C479        C480   1.400       .  A
C479        C484   1.405       .  A
C480        C481   1.393       .  A
C480        H489   1.083       .  S
C481        C482   1.402       .  A
C481        H490   1.083       .  S
C482        C488   1.394       .  A
C482        C483   1.410       .  A
C483        C485   1.404       .  A
C483        C484   1.399       .  A
C484        H491   1.081       .  S
C485        C486   1.400       .  A
C485        H492   1.084       .  S
C486        C487   1.405       .  A
C486        H493   1.083       .  S
C487        C488   1.405       .  A
C488        H494   1.083       .  S
C495        C496   1.404       .  A
C495        C500   1.407       .  A
C496        C497   1.401       .  A
C496        H505   1.083       .  S
C497        C498   1.406       .  A
C497        H506   1.086       .  S
C498        C504   1.399       .  A
C498        C499   1.410       .  A
C499        C501   1.402       .  A
C499        C500   1.392       .  A
C500        H507   1.086       .  S
C501        C502   1.393       .  A
C501        H508   1.085       .  S
C502        C503   1.400       .  A
C502        H509   1.083       .  S
C503        C504   1.403       .  A
C504        H510   1.083       .  S
C511        C512   1.404       .  A
C511        C516   1.411       .  A
C512        C513   1.402       .  A
C512        H521   1.083       .  S
C513        C514   1.406       .  A
C513        H522   1.080       .  S
C514        C520   1.406       .  A
C514        C515   1.408       .  A
C515        C517   1.406       .  A
C515        C516   1.405       .  A
C516        H523   1.078       .  S
C517        C518   1.402       .  A
C517        H524   1.083       .  S
C518        C519   1.404       .  A
C518        H525   1.083       .  S
C519        C520   1.410       .  A
C520        H526   1.074       .  S
C527        C528   1.398       .  A
C527        C532   1.411       .  A
C528        C529   1.398       .  A
C528        H537   1.082       .  S
C529        C530   1.406       .  A
C529        H538   1.082       .  S
C530        C536   1.392       .  A
C530        C531   1.404       .  A
C531        C533   1.409       .  A
C531        C532   1.395       .  A
C532        H539   1.076       .  S
C533        C534   1.402       .  A
C533        H540   1.082       .  S
C534        C535   1.400       .  A
C534        H541   1.084       .  S
C535        C536   1.408       .  A
C536        H542   1.081       .  S
C543        C544   1.410       .  A
C543        C548   1.403       .  A
C544        C545   1.390       .  A
C544        H553   1.082       .  S
C545        C546   1.393       .  A
C545        H554   1.084       .  S
C546        C552   1.406       .  A
C546        C547   1.419       .  A
C547        C549   1.399       .  A
C547        C548   1.412       .  A
C548        H555   1.084       .  S
C549        C550   1.397       .  A
C549        H556   1.084       .  S
C550        C551   1.409       .  A
C550        H557   1.083   1_455  S
C551        C552   1.398       .  A
C552        H558   1.084       .  S
