geometry optimzed in LAMMPS
_audit_creation_date              2020-11-30 
_audit_creation_method            'lammps2cif' 
_symmetry_space_group_name_H-M    'P1' 
_symmetry_Int_Tables_number       1 
_symmetry_cell_setting            triclinic 
loop_ 
_symmetry_equiv_pos_as_xyz 
  x,y,z 
_cell_length_a                    49.84514712 
_cell_length_b                    46.871035232547754 
_cell_length_c                    43.766369257324236 
_cell_angle_alpha                 93.19652614632754 
_cell_angle_beta                  90.44389316878656 
_cell_angle_gamma                 89.98451159473665 
loop_ 
_atom_site_label 
_atom_site_type_symbol 
_atom_site_fract_x 
_atom_site_fract_y 
_atom_site_fract_z 
_atom_site_charge 
O1          O  0.14324340  0.19183434  0.04013279    -0.74200
O2          O  0.12205339  0.15771003  0.00977918    -0.53100
C3          C  0.13938717  0.16528620  0.02997004     0.79500
O4          O  0.02238631  0.27242819  0.02970450    -0.58800
O5          O  0.04754449  0.31049135  0.02686319    -0.51800
C6          C  0.03163273  0.29548948  0.04227741     0.71500
O7          O  0.05572419  0.18361581  0.05679262    -0.73400
O8          O  0.07514638  0.15115628  0.02347710    -0.53900
C9          C  0.06652289  0.15932859  0.05002887     0.77500
O10         O  0.13297357  0.29414685  0.03761442    -0.58500
O11         O  0.10191718  0.31951845  0.01160819    -0.51600
C12         C  0.12240381  0.31789983  0.02903621     0.74100
Zr13       Zr  0.12524044  0.24114257  0.02770055     2.54700
O14         O  0.12536809  0.24337894  0.08341186    -0.79100
O15         O  0.17360643  0.24846290  0.02640652    -0.92500
Zr16       Zr  0.04613243  0.22798522  0.03351777     2.64700
O17         O  0.05010472  0.23856396  0.08868809    -0.97500
O18         O  0.00116123  0.21061966  0.04352355    -0.79500
O19         O  0.08831569  0.21286355  0.02341423    -0.82900
O20         O  0.08163191  0.26211120  0.03150147    -2.17600
O21         O  0.12581137  0.28658477  0.42640465    -0.66300
O22         O  0.10628834  0.31727257  0.46158223    -0.50800
C23         C  0.11876965  0.31219650  0.43665858     0.72500
O24         O  0.04609772  0.18914838  0.41204967    -0.59200
O25         O  0.05841297  0.15351003  0.44208137    -0.51100
C26         C  0.05440373  0.16387151  0.41599095     0.74300
O27         O  0.03568285  0.27782987  0.41671390    -0.70600
O28         O  0.05597308  0.31351885  0.44565578    -0.49200
C29         C  0.04414965  0.30356045  0.42094847     0.75700
O30         O  0.13758080  0.18615918  0.42957377    -0.65900
O31         O  0.11009432  0.15433834  0.45164264    -0.53100
C32         C  0.13029193  0.16036489  0.43543118     0.74100
Zr33       Zr  0.12187021  0.23606973  0.44425482     2.77500
O34         O  0.13915692  0.23620731  0.39224545    -0.96600
O35         O  0.16682522  0.24515894  0.46465934    -0.77500
Zr36       Zr  0.04007121  0.23303908  0.44127549     2.70100
O37         O  0.02267671  0.22764976  0.38911277    -0.78700
O38         O  0.99200465  0.23216877  0.45104659    -0.97800
Zr39       Zr  0.07967472  0.18094901  0.48368128     2.21500
Zr40       Zr  0.07309771  0.28660153  0.98521874     2.11100
O41         O  0.08021771  0.25994765  0.44147402    -2.46500
O42         O  0.08141469  0.21270813  0.44674333    -0.78500
O43         O  0.11924177  0.26369623  0.49080702    -0.70700
O44         O  0.04381961  0.19669548  0.98862458    -2.31700
O45         O  0.12099671  0.20724910  0.48713135    -2.27900
O46         O  0.03611184  0.25473749  0.98969687    -0.72500
H47         H  0.08149663  0.27529923  0.04924214     0.79500
H48         H  0.03153185  0.18089044  0.98991748     0.80600
H49         H  0.08158377  0.26994843  0.42302147     0.82800
H50         H  0.13655450  0.19498928  0.48718218     0.80500
H51         H  0.00168185  0.18992997  0.03762689     0.43500
H52         H  0.98815884  0.21375285  0.46007895     0.42500
H53         H  0.03739600  0.23392281  0.37596363     0.42100
H54         H  0.15859553  0.23243231  0.39455597     0.40100
H55         H  0.17429874  0.22596925  0.46785858     0.43200
H56         H  0.18151421  0.22921098  0.02787835     0.38000
H57         H  0.13561032  0.26093253  0.08940924     0.44100
H58         H  0.05846974  0.22168529  0.09745897     0.40500
H59         H  0.13215974  0.21894909  0.38095046     0.45400
H60         H  0.17795344  0.25851811  0.04633144     0.44200
H61         H  0.06399400  0.25358272  0.09135090     0.44300
H62         H  0.98898387  0.24677178  0.46785681     0.44700
O63         O  0.41459791  0.20424096  0.05743164    -0.74200
O64         O  0.39331844  0.16463043  0.03799909    -0.53100
C65         C  0.40486679  0.17924222  0.06038346     0.79500
O66         O  0.33219540  0.29633010  0.05854194    -0.58800
O67         O  0.34963621  0.32237184  0.02083745    -0.51800
C68         C  0.33814393  0.32048021  0.04651139     0.71500
O69         O  0.33725064  0.19429353  0.07056748    -0.73400
O70         O  0.35467359  0.16535978  0.52650825    -0.53900
C71         C  0.33894087  0.16726947  0.06113712     0.77500
O72         O  0.43060950  0.28709696  0.02448977    -0.58500
O73         O  0.39742249  0.31784025  0.01963229    -0.51600
C74         C  0.41569478  0.30672077  0.03621965     0.74100
Zr75       Zr  0.41674027  0.23773748  0.01712273     2.54700
O76         O  0.45775876  0.24536359  0.04735916    -0.79100
O77         O  0.45444120  0.21909425  0.98719386    -0.92500
Zr78       Zr  0.33665439  0.24278939  0.04579091     2.64700
O79         O  0.33918336  0.25129525  0.10115560    -0.97500
O80         O  0.28804720  0.24065467  0.05021649    -0.79500
O81         O  0.37658577  0.21705161  0.03463245    -0.82900
O82         O  0.37639383  0.26424185  0.02880250    -2.17600
O83         O  0.40305863  0.29562433  0.41885848    -0.66300
O84         O  0.37183193  0.32575413  0.44095965    -0.50800
C85         C  0.38634388  0.31645005  0.41806059     0.72500
O86         O  0.33305014  0.18035599  0.43331495    -0.59200
O87         O  0.36154060  0.16000915  0.46681991    -0.51100
C88         C  0.34550250  0.15839181  0.44388581     0.74300
O89         O  0.30559724  0.28040799  0.43139175    -0.70600
O90         O  0.33005395  0.31963941  0.44802667    -0.49200
C91         C  0.31023315  0.30812340  0.43383545     0.75700
O92         O  0.43617825  0.21288354  0.45096575    -0.65900
O93         O  0.41040866  0.17542918  0.45938669    -0.53100
C94         C  0.42725746  0.18831019  0.44270043     0.74100
Zr95       Zr  0.40881708  0.25480934  0.44993796     2.77500
O96         O  0.41018060  0.24338868  0.39505445    -0.96600
O97         O  0.45318274  0.27634771  0.44878685    -0.77500
Zr98       Zr  0.32900037  0.23352417  0.44569039     2.70100
O99         O  0.32807084  0.22893188  0.39002156    -0.78700
O100        O  0.28191182  0.21993998  0.44763363    -0.97800
Zr101      Zr  0.38033060  0.19766144  0.49867292     2.21500
Zr102      Zr  0.35634992  0.30167755  0.48672272     2.11100
O103        O  0.36321384  0.26750506  0.44620881    -2.46500
O104        O  0.37492979  0.21872526  0.45048184    -0.78500
O105        O  0.40230011  0.28963875  0.49073527    -0.70700
O106        O  0.33394117  0.21144057  0.49294463    -2.31700
O107        O  0.41532250  0.23232905  0.49778086    -2.27900
O108        O  0.32190366  0.26551057  0.48855232    -0.72500
H109        H  0.37817487  0.27743111  0.04601270     0.79500
H110        H  0.32185087  0.19534241  0.49232278     0.80600
H111        H  0.35936577  0.27509754  0.42682903     0.82800
H112        H  0.43269146  0.22429034  0.50222822     0.80500
H113        H  0.28331255  0.25795053  0.06306815     0.43500
H114        H  0.28210003  0.19958489  0.45257633     0.42500
H115        H  0.34622526  0.22196529  0.38438486     0.42100
H116        H  0.40392719  0.22342004  0.39199090     0.40100
H117        H  0.45796109  0.27566906  0.42684119     0.43200
H118        H  0.46398112  0.20613459  0.00067232     0.38000
H119        H  0.45809796  0.23007989  0.06205805     0.44100
H120        H  0.35145332  0.26777795  0.10461689     0.40500
H121        H  0.42939420  0.24330897  0.38964969     0.45400
H122        H  0.46648282  0.23576699  0.98585497     0.44200
H123        H  0.32127980  0.25881966  0.10703754     0.44300
H124        H  0.27507701  0.23019572  0.46636716     0.44700
O125        O  0.17895901  0.03902959  0.17279661    -0.74200
O126        O  0.15883994  0.01885160  0.12969727    -0.53100
C127        C  0.15795361  0.03207258  0.15582472     0.79500
O128        O  0.28954250  0.06502668  0.09032919    -0.58800
O129        O  0.31834126  0.03865331  0.11803783    -0.51800
C130        C  0.31151467  0.06193260  0.10495617     0.71500
O131        O  0.20731531  0.06672479  0.08564960    -0.73400
O132        O  0.17515787  0.03490279  0.07118974    -0.53900
C133        C  0.18427471  0.06087738  0.07424279     0.77500
O134        O  0.27459630  0.04920758  0.19029152    -0.58500
O135        O  0.29460677  0.00765660  0.18172884    -0.51600
C136        C  0.29619390  0.03381337  0.18966736     0.74100
Zr137      Zr  0.22969214  0.03283017  0.16866791     2.54700
O138        O  0.22302200  0.08342615  0.18193711    -0.79100
O139        O  0.22347693  0.01940705  0.22085176    -0.92500
Zr140      Zr  0.24821220  0.04022070  0.07944657     2.64700
O141        O  0.24790773  0.08730877  0.05818814    -0.97500
O142        O  0.25403131  0.03460868  0.02438773    -0.79500
O143        O  0.21479456  0.03655261  0.11730748    -0.82900
O144        O  0.26338668  0.03694176  0.13055070    -2.17600
O145        O  0.26927618  0.43929853  0.16498430    -0.66300
O146        O  0.30047221  0.46596909  0.14079539    -0.50800
C147        C  0.29400975  0.44695698  0.15894251     0.72500
O148        O  0.18649817  0.42724583  0.05485009    -0.59200
O149        O  0.15125033  0.45449730  0.07130243    -0.51100
C150        C  0.16157955  0.43086862  0.06023436     0.74300
O151        O  0.26949923  0.42844832  0.05862308    -0.70600
O152        O  0.30102800  0.45492382  0.08541539    -0.49200
C153        C  0.29285727  0.43169158  0.07064543     0.75700
O154        O  0.17157692  0.43739331  0.15534572    -0.65900
O155        O  0.14513484  0.46715432  0.12890447    -0.53100
C156        C  0.14811460  0.44632311  0.14606471     0.74100
Zr157      Zr  0.22064282  0.45234690  0.15061734     2.77500
O158        O  0.22182637  0.40082229  0.15502368    -0.96600
O159        O  0.21617955  0.45983226  0.20570274    -0.77500
Zr160      Zr  0.22761041  0.45389188  0.05783738     2.70100
O161        O  0.22355161  0.40859120  0.02816386    -0.78700
O162        O  0.23693268  0.46460267  0.00528544    -0.97800
Zr163      Zr  0.17384954  0.49471705  0.09982040     2.21500
Zr164      Zr  0.29102399  0.99503768  0.12861466     2.11100
O165        O  0.24803016  0.45264721  0.10685867    -2.46500
O166        O  0.19981313  0.45258230  0.10144509    -0.78500
O167        O  0.25699626  0.99093533  0.16734233    -0.70700
O168        O  0.22356914  0.99885242  0.06156975    -2.31700
O169        O  0.19466777  0.49482494  0.14968028    -2.27900
O170        O  0.27700332  0.99950320  0.07721321    -0.72500
H171        H  0.27247841  0.05422464  0.13740661     0.79500
H172        H  0.21542297  0.00026444  0.04160507     0.80600
H173        H  0.25800642  0.43539057  0.10939704     0.82800
H174        H  0.18144996  0.49443078  0.16566498     0.80500
H175        H  0.27295660  0.02857804  0.02200479     0.43500
H176        H  0.25514324  0.45666296  0.00193739     0.42500
H177        H  0.22856635  0.39379496  0.04247914     0.42100
H178        H  0.21204449  0.39765858  0.17414985     0.40100
H179        H  0.23076284  0.47336291  0.21178506     0.43200
H180        H  0.23609651  0.00333444  0.22313434     0.38000
H181        H  0.22348081  0.08486813  0.20459448     0.44100
H182        H  0.25034878  0.10109787  0.07598378     0.40500
H183        H  0.20978994  0.39308411  0.13847102     0.45400
H184        H  0.20549106  0.01043843  0.22082764     0.44200
H185        H  0.26469494  0.08859966  0.04639655     0.44300
H186        H  0.23963519  0.48548150  0.00553433     0.44700
O187        O  0.21177153  0.05322968  0.43459854    -0.74200
O188        O  0.17464845  0.02901338  0.41839736    -0.53100
C189        C  0.18666405  0.05218046  0.42830706     0.79500
O190        O  0.28588141  0.03568540  0.32097290    -0.58800
O191        O  0.31789143  0.00711057  0.34177165    -0.51800
C192        C  0.31078047  0.02682386  0.32449237     0.71500
O193        O  0.18783600  0.03624917  0.33041988    -0.73400
O194        O  0.16199351  0.01338484  0.36397750    -0.53900
C195        C  0.16449385  0.02937158  0.34162576     0.77500
O196        O  0.29228812  0.04582757  0.42764719    -0.58500
O197        O  0.32124153  0.01980213  0.39724374    -0.51600
C198        C  0.31449969  0.04274913  0.41351403     0.74100
Zr199      Zr  0.25008439  0.02169222  0.43059573     2.54700
O200        O  0.25075936  0.06468616  0.46462077    -0.79100
O201        O  0.26579479  0.00439012  0.47940641    -0.92500
Zr202      Zr  0.23771114  0.02535027  0.33899094     2.64700
O203        O  0.23643817  0.07737398  0.34351510    -0.97500
O204        O  0.23362696  0.02534411  0.28384902    -0.79500
O205        O  0.22320312  0.02072395  0.38803366    -0.82900
O206        O  0.26781163  0.02290581  0.38055503    -2.17600
O207        O  0.25111228  0.42962567  0.44009022    -0.66300
O208        O  0.28393201  0.44028258  0.40823118    -0.50800
C209        C  0.27232102  0.42252522  0.42546872     0.72500
O210        O  0.17191913  0.43031188  0.30815528    -0.59200
O211        O  0.14050380  0.45928652  0.33197561    -0.51100
C212        C  0.14717603  0.43921832  0.31280741     0.74300
O213        O  0.27013885  0.44014980  0.31432744    -0.70600
O214        O  0.29557279  0.46044492  0.35316464    -0.49200
C215        C  0.29334795  0.44694843  0.32725511     0.75700
O216        O  0.17800098  0.41666164  0.38677342    -0.65900
O217        O  0.14137879  0.44383884  0.38949150    -0.53100
C218        C  0.15287541  0.41901072  0.39018459     0.74100
Zr219      Zr  0.20901618  0.44386704  0.41776726     2.77500
O220        O  0.20956032  0.39526085  0.43484513    -0.96600
O221        O  0.18005678  0.44461841  0.46258622    -0.77500
Zr222      Zr  0.21979505  0.44382122  0.32642391     2.70100
O223        O  0.22355956  0.39204922  0.32638429    -0.78700
O224        O  0.22118563  0.44320182  0.27089368    -0.97800
Zr225      Zr  0.16456047  0.48651614  0.36930838     2.21500
Zr226      Zr  0.26490702  0.48396490  0.38626677     2.11100
O227        O  0.23931759  0.44129250  0.37606240    -2.46500
O228        O  0.19532380  0.45177531  0.36956034    -0.78500
O229        O  0.23577363  0.48525733  0.42925299    -0.70700
O230        O  0.19380542  0.48620717  0.32536782    -2.31700
O231        O  0.18181857  0.48596184  0.42004307    -2.27900
O232        O  0.24650211  0.48521660  0.33507464    -0.72500
H233        H  0.27807199  0.03969499  0.37723053     0.79500
H234        H  0.18375475  0.48632436  0.30642293     0.80600
H235        H  0.24927229  0.42363682  0.37480637     0.82800
H236        H  0.16711841  0.48621697  0.43426614     0.80500
H237        H  0.22202932  0.00858383  0.27874275     0.43500
H238        H  0.20534392  0.45453429  0.26517175     0.42500
H239        H  0.21244483  0.38491740  0.30873526     0.42100
H240        H  0.19058889  0.39035598  0.43854083     0.40100
H241        H  0.18508113  0.46200169  0.47522317     0.43200
H242        H  0.27165500  0.02189205  0.49126507     0.38000
H243        H  0.25784927  0.08004274  0.45227367     0.44100
H244        H  0.21719852  0.08228935  0.34557419     0.40500
H245        H  0.21462581  0.38317433  0.41651219     0.45400
H246        H  0.28283338  0.99397878  0.47570864     0.44200
H247        H  0.24415354  0.08240905  0.36399797     0.44300
H248        H  0.23673661  0.45539982  0.26648213     0.44700
O249        O  0.02437979  0.03843445  0.18128712    -0.74200
O250        O  0.05750676  0.06628091  0.20340620    -0.53100
C251        C  0.04954756  0.04493141  0.18697496     0.79500
O252        O  0.44578506  0.16893718  0.18108732    -0.58800
O253        O  0.41302512  0.15004139  0.20964683    -0.51800
C254        C  0.42154541  0.16134968  0.18514226     0.71500
O255        O  0.02455126  0.12409376  0.15922207    -0.73400
O256        O  0.06088772  0.11996288  0.18958022    -0.53900
C257        C  0.04975228  0.12158343  0.16313391     0.77500
O258        O  0.42731233  0.06630073  0.19833865    -0.58500
O259        O  0.40527810  0.10112397  0.22635441    -0.51600
C260        C  0.40537374  0.07860905  0.20894730     0.74100
Zr261      Zr  0.47813948  0.07399463  0.20209330     2.54700
O262        O  0.47299218  0.07000557  0.14667350    -0.79100
O263        O  0.47022494  0.02333715  0.20781937    -0.92500
Zr264      Zr  0.48910911  0.16039815  0.20327119     2.64700
O265        O  0.48921274  0.18342735  0.15438485    -0.97500
O266        O  0.50219735  0.20994350  0.21529278    -0.79500
O267        O  0.00529992  0.09858581  0.19666388    -0.82900
O268        O  0.45977276  0.12045026  0.20432182    -2.17600
O269        O  0.43772338  0.06388809  0.29862018    -0.66300
O270        O  0.41060649  0.09888389  0.28126257    -0.50800
C271        C  0.41410425  0.07534262  0.29405965     0.72500
O272        O  0.04746129  0.15968886  0.28601499    -0.59200
O273        O  0.06693579  0.11781761  0.27452252    -0.51100
C274        C  0.06236254  0.13897409  0.29322292     0.74300
O275        O  0.45411323  0.18647335  0.29805141    -0.70600
O276        O  0.41968195  0.15709601  0.29542752    -0.49200
C277        C  0.43463396  0.17470786  0.31117562     0.75700
O278        O  0.03668554  0.05464055  0.29730675    -0.65900
O279        O  0.06391097  0.07092045  0.26069275    -0.53100
C280        C  0.06039371  0.05786771  0.28496996     0.74100
Zr281      Zr  0.48709628  0.07709323  0.29160157     2.77500
O282        O  0.48743468  0.07749056  0.34727234    -0.96600
O283        O  0.48615760  0.02504647  0.28864762    -0.77500
Zr284      Zr  0.49704105  0.16304517  0.29279189     2.70100
O285        O  0.49917563  0.15766713  0.34778091    -0.78700
O286        O  0.50624043  0.21320383  0.30683574    -0.97800
Zr287      Zr  0.03722991  0.10177548  0.23324479     2.21500
Zr288      Zr  0.43809250  0.12834793  0.25217586     2.11100
O289        O  0.46705427  0.12355360  0.29608648    -2.46500
O290        O  0.01274716  0.10960838  0.27572954    -0.78500
O291        O  0.45685892  0.08094559  0.24992148    -0.70700
O292        O  0.02132336  0.14918715  0.23189573    -2.31700
O293        O  0.00977620  0.06075169  0.24081236    -2.27900
O294        O  0.46675531  0.16884440  0.25066405    -0.72500
H295        H  0.44798555  0.11854687  0.18692672     0.79500
H296        H  0.03548182  0.16272574  0.22858923     0.80600
H297        H  0.45723868  0.12485064  0.31503695     0.82800
H298        H  0.02008786  0.04335011  0.24137172     0.80500
H299        H  0.49452185  0.21500333  0.23566935     0.43500
H300        H  0.51857701  0.21315517  0.32468622     0.42500
H301        H  0.51166378  0.14157393  0.35029758     0.42100
H302        H  0.50352077  0.08874940  0.35364669     0.40100
H303        H  0.50325767  0.01907447  0.27887191     0.43200
H304        H  0.96669969  0.01728290  0.24309275     0.38000
H305        H  0.96402467  0.05229607  0.13628667     0.44100
H306        H  0.47809141  0.20083300  0.15745422     0.40500
H307        H  0.47208400  0.08975675  0.35370004     0.45400
H308        H  0.48623505  0.01677011  0.21895492     0.44200
H309        H  0.50754980  0.19106074  0.15198081     0.44300
H310        H  0.51729609  0.21998625  0.29000183     0.44700
O311        O  0.99968184  0.29863483  0.18477831    -0.74200
O312        O  0.03268576  0.32978397  0.19059296    -0.53100
C313        C  0.02031198  0.31038941  0.17423437     0.79500
O314        O  0.42393488  0.40984196  0.17239146    -0.58800
O315        O  0.39267966  0.38507548  0.19836119    -0.51800
C316        C  0.39909581  0.40371443  0.17992771     0.71500
O317        O  0.02000425  0.41152657  0.16959494    -0.73400
O318        O  0.04332435  0.38382178  0.20174307    -0.53900
C319        C  0.04242698  0.40180327  0.18090361     0.77500
O320        O  0.41867386  0.29715316  0.18313864    -0.58500
O321        O  0.39354382  0.33569451  0.18468880    -0.51600
C322        C  0.40372730  0.31447101  0.16925373     0.74100
Zr323      Zr  0.46636413  0.30578683  0.19060604     2.54700
O324        O  0.46852253  0.30133553  0.13497979    -0.79100
O325        O  0.46247986  0.25396793  0.18518875    -0.92500
Zr326      Zr  0.47227409  0.39184060  0.18238198     2.64700
O327        O  0.47105115  0.37970689  0.12752887    -0.97500
O328        O  0.47729828  0.44228666  0.17309751    -0.79500
O329        O  0.98779098  0.36075097  0.18317886    -0.82900
O330        O  0.44605976  0.35090454  0.18563601    -2.17600
O331        O  0.41993474  0.32196945  0.30240191    -0.66300
O332        O  0.38906635  0.34001199  0.27019693    -0.50800
C333        C  0.39635771  0.33077791  0.29620005     0.72500
O334        O  0.01621696  0.42414615  0.28312481    -0.59200
O335        O  0.04168078  0.38910498  0.25915527    -0.51100
C336        C  0.03915408  0.41181326  0.27617671     0.74300
O337        O  0.42161529  0.42087000  0.28357140    -0.70600
O338        O  0.39238740  0.39306421  0.25493794    -0.49200
C339        C  0.39735313  0.41375102  0.27415424     0.75700
O340        O  0.99012325  0.33798309  0.30676469    -0.65900
O341        O  0.02795888  0.33948720  0.27825398    -0.53100
C342        C  0.01566985  0.33808925  0.30410406     0.74100
Zr343      Zr  0.46337992  0.31857378  0.27919968     2.77500
O344        O  0.46382819  0.29477469  0.32743423    -0.96600
O345        O  0.46454117  0.26705190  0.26755117    -0.77500
Zr346      Zr  0.46959322  0.40426808  0.27176898     2.70100
O347        O  0.47054534  0.42100163  0.32541684    -0.78700
O348        O  0.47247711  0.45223972  0.25332943    -0.97800
Zr349      Zr  0.01102820  0.35996597  0.23080266     2.21500
Zr350      Zr  0.41767972  0.35693570  0.22941554     2.11100
O351        O  0.44188287  0.36365991  0.27625157    -2.46500
O352        O  0.97992744  0.37082370  0.26669486    -0.78500
O353        O  0.43728422  0.31104926  0.23390621    -0.70700
O354        O  0.99358618  0.40736766  0.22544309    -2.31700
O355        O  0.98094118  0.32051201  0.23128007    -2.27900
O356        O  0.44429661  0.39952637  0.22590856    -0.72500
H357        H  0.43720599  0.35102624  0.16626996     0.79500
H358        H  0.00771245  0.42143282  0.22537607     0.80600
H359        H  0.43101803  0.36894338  0.29375296     0.82800
H360        H  0.99005139  0.30294917  0.23550896     0.80500
H361        H  0.99585002  0.46155971  0.18294610     0.43500
H362        H  0.45447858  0.46065707  0.25690009     0.42500
H363        H  0.47838844  0.44041209  0.32535612     0.42100
H364        H  0.45773869  0.30936223  0.34310654     0.40100
H365        H  0.44645243  0.26206595  0.25941627     0.43200
H366        H  0.45717829  0.24989979  0.16353729     0.38000
H367        H  0.98116880  0.34008130  0.12821280     0.44100
H368        H  0.45913963  0.39426249  0.11904739     0.40500
H369        H  0.44900055  0.28069263  0.32571898     0.45400
H370        H  0.44634675  0.24932648  0.19699457     0.44200
H371        H  0.48917382  0.38447352  0.12024761     0.44300
H372        H  0.48431179  0.46271894  0.26835330     0.44700
C373        C  0.32250066  0.43111749  0.28162657     0.24700
C374        C  0.32022307  0.44017511  0.31253272    -0.23400
C375        C  0.34466257  0.44454456  0.32958908     0.19600
C376        C  0.36997505  0.43880895  0.31650069     0.24600
C377        C  0.37202641  0.42787826  0.28621281    -0.23400
C378        C  0.34779612  0.42499750  0.26875036     0.19500
F379        F  0.34833443  0.41504604  0.23906515    -0.13300
F380        F  0.30024591  0.42784748  0.26370871    -0.15700
F381        F  0.39233180  0.44223761  0.33424128    -0.15700
F382        F  0.34441025  0.45359009  0.35961167    -0.13300
C383        C  0.07795607  0.40925048  0.31166783     0.24700
C384        C  0.06570057  0.42278219  0.28742179    -0.23400
C385        C  0.08258872  0.43708254  0.26742539     0.19600
C386        C  0.11062310  0.43913770  0.27278039     0.24600
C387        C  0.12276350  0.42611033  0.29769940    -0.23400
C388        C  0.10585507  0.41051785  0.31630897     0.19500
F389        F  0.11637743  0.39719418  0.34010849    -0.13300
F390        F  0.06288140  0.39380577  0.33046286    -0.15700
F391        F  0.12578203  0.45479109  0.25424879    -0.15700
F392        F  0.07192501  0.44862789  0.24228043    -0.13300
C393        C  0.34041149  0.06880861  0.31673271     0.24700
C394        C  0.33454913  0.04001294  0.31006145    -0.23400
C395        C  0.35559169  0.02220393  0.29829665     0.19600
C396        C  0.38188716  0.03282764  0.29455934     0.24600
C397        C  0.38795666  0.06162224  0.30249648    -0.23400
C398        C  0.36641160  0.07938927  0.31277303     0.19500
F399        F  0.37034800  0.10758286  0.31890696    -0.13300
F400        F  0.32130901  0.08659996  0.32879156    -0.15700
F401        F  0.40103812  0.01517780  0.28226747    -0.15700
F402        F  0.35073225  0.99411250  0.29112671    -0.13300
C403        C  0.11173069  0.05596407  0.28562901     0.24700
C404        C  0.08671706  0.04901852  0.29940554    -0.23400
C405        C  0.08804725  0.03684840  0.32786986     0.19600
C406        C  0.11302471  0.03153988  0.34183688     0.24600
C407        C  0.13794121  0.03819579  0.32784855    -0.23400
C408        C  0.13659437  0.05066753  0.29960174     0.19500
F409        F  0.15943332  0.05763594  0.28504308    -0.13300
F410        F  0.11265828  0.06854273  0.25844164    -0.15700
F411        F  0.11242561  0.01984896  0.36945456    -0.15700
F412        F  0.06517191  0.03035453  0.34261030    -0.13300
C413        C  0.35352335  0.39930411  0.15621487     0.24700
C414        C  0.37423506  0.41755131  0.16856606    -0.23400
C415        C  0.36623998  0.44388071  0.18257620     0.19600
C416        C  0.33888242  0.45161608  0.18389158     0.24600
C417        C  0.31855563  0.43348914  0.17093402    -0.23400
C418        C  0.32639896  0.40717704  0.15744574     0.19500
F419        F  0.30768008  0.38917969  0.14460890    -0.13300
F420        F  0.35904731  0.37252757  0.14489233    -0.15700
F421        F  0.33206818  0.47728486  0.19748889    -0.15700
F422        F  0.38470131  0.46120352  0.19708586    -0.13300
C423        C  0.09368497  0.40412727  0.18644354     0.24700
C424        C  0.06970464  0.41182400  0.17075063    -0.23400
C425        C  0.07251973  0.42925320  0.14600462     0.19600
C426        C  0.09787442  0.43919285  0.13764696     0.24600
C427        C  0.12171487  0.43272306  0.15422043    -0.23400
C428        C  0.11908264  0.41465735  0.17849068     0.19500
F429        F  0.14094364  0.40765981  0.19517849    -0.13300
F430        F  0.09283602  0.38668055  0.21016243    -0.15700
F431        F  0.09873373  0.45543094  0.11292122    -0.15700
F432        F  0.05069852  0.43680879  0.12955837    -0.13300
C433        C  0.35482813  0.08091694  0.21714471     0.24700
C434        C  0.37748561  0.06712688  0.20274317    -0.23400
C435        C  0.37262705  0.04248365  0.18404218     0.19600
C436        C  0.34641407  0.03181216  0.18009321     0.24600
C437        C  0.32396160  0.04565741  0.19442813    -0.23400
C438        C  0.32870304  0.07034874  0.21287450     0.19500
F439        F  0.30811539  0.08392555  0.22770652    -0.13300
F440        F  0.35753529  0.10474128  0.23604989    -0.15700
F441        F  0.34321984  0.00800238  0.16145424    -0.15700
F442        F  0.39315989  0.02856849  0.16946767    -0.13300
C443        C  0.08306335  0.03817262  0.14704440     0.24700
C444        C  0.07327464  0.02927359  0.17482748    -0.23400
C445        C  0.09246349  0.02143709  0.19704675     0.19600
C446        C  0.12023097  0.02509296  0.19257889     0.24600
C447        C  0.12966006  0.03650557  0.16569945    -0.23400
C448        C  0.11053084  0.04300323  0.14304283     0.19500
F449        F  0.11866315  0.05375672  0.11643988    -0.13300
F450        F  0.06568374  0.04468407  0.12459749    -0.15700
F451        F  0.13783517  0.01742219  0.21447795    -0.15700
F452        F  0.08399704  0.01352220  0.22475374    -0.13300
C453        C  0.34486607  0.37401107  0.05332972     0.24700
C454        C  0.33060393  0.34902453  0.06099229    -0.23400
C455        C  0.30619445  0.35265352  0.07620638     0.19600
C456        C  0.29489216  0.37994411  0.08046165     0.24600
C457        C  0.30830297  0.40459366  0.07104994    -0.23400
C458        C  0.33388521  0.40147100  0.05859197     0.19500
F459        F  0.34705550  0.42454550  0.04873202    -0.13300
F460        F  0.36856795  0.37184932  0.03834129    -0.15700
F461        F  0.26993157  0.38213535  0.09259175    -0.15700
F462        F  0.29192285  0.32961313  0.08421069    -0.13300
C463        C  0.35336765  0.11745152  0.07347333     0.24700
C464        C  0.33833293  0.14257972  0.08186203    -0.23400
C465        C  0.32009305  0.14093704  0.10590470     0.19600
C466        C  0.31449854  0.11424455  0.11803093     0.24600
C467        C  0.32756311  0.08877850  0.10697788    -0.23400
C468        C  0.34861784  0.09135020  0.08659926     0.19500
F469        F  0.36183140  0.06763432  0.07566311    -0.13300
F470        F  0.32266642  0.14978377  0.60296142    -0.15700
F471        F  0.29355298  0.11252035  0.13748903    -0.15700
F472        F  0.30519764  0.16411818  0.11483860    -0.13300
C473        C  0.29597095  0.37825419  0.40175027     0.24700
C474        C  0.28091137  0.39151918  0.42579641    -0.23400
C475        C  0.27027884  0.37353202  0.44766016     0.19600
C476        C  0.27520652  0.34387626  0.44611340     0.24600
C477        C  0.29188699  0.33090359  0.42345192    -0.23400
C478        C  0.30135804  0.34855859  0.40069945     0.19500
F479        F  0.31790616  0.33735230  0.37871221    -0.13300
F480        F  0.30596616  0.39401142  0.37935926    -0.15700
F481        F  0.26629068  0.32833580  0.46925893    -0.15700
F482        F  0.25597054  0.38474705  0.47169934    -0.13300
C483        C  0.32042055  0.12194140  0.40938232     0.24700
C484        C  0.34147916  0.12851403  0.42994957    -0.23400
C485        C  0.35785828  0.10543804  0.43916810     0.19600
C486        C  0.35142571  0.07680597  0.43070885     0.24600
C487        C  0.32902264  0.07039371  0.41224499    -0.23400
C488        C  0.31450534  0.09343172  0.40049282     0.19500
F489        F  0.29247407  0.08828672  0.38272946    -0.13300
F490        F  0.30407110  0.14281356  0.39965619    -0.15700
F491        F  0.36580004  0.05541570  0.44260736    -0.15700
F492        F  0.37949607  0.11026371  0.45777410    -0.13300
C493        C  0.37008566  0.30719346  0.33390485     0.24700
C494        C  0.37900939  0.33295442  0.32318074    -0.23400
C495        C  0.38425101  0.35600446  0.34470365     0.19600
C496        C  0.38463637  0.35187777  0.37632974     0.24600
C497        C  0.37960495  0.32469132  0.38664691    -0.23400
C498        C  0.37088253  0.30286779  0.36516312     0.19500
F499        F  0.36561139  0.27620060  0.37394061    -0.13300
F500        F  0.36520332  0.28458616  0.31385003    -0.15700
F501        F  0.39302233  0.37330598  0.39625856    -0.15700
F502        F  0.39351022  0.38108961  0.33496349    -0.13300
C503        C  0.41273919  0.28532921  0.08786068     0.24700
C504        C  0.41380750  0.30987299  0.07047525    -0.23400
C505        C  0.41022223  0.33647325  0.08594122     0.19600
C506        C  0.40588237  0.33842018  0.11770266     0.24600
C507        C  0.40405321  0.31359413  0.13488686    -0.23400
C508        C  0.40749847  0.28717101  0.11915751     0.19500
F509        F  0.40619636  0.26280181  0.13439482    -0.13300
F510        F  0.41470751  0.25893824  0.07433397    -0.15700
F511        F  0.40595963  0.36484158  0.13140889    -0.15700
F512        F  0.41253815  0.36075525  0.07068111    -0.13300
C513        C  0.45204660  0.19311973  0.36280807     0.24700
C514        C  0.43286545  0.17714018  0.34542001    -0.23400
C515        C  0.41428649  0.16101735  0.36137204     0.19600
C516        C  0.41440771  0.16144057  0.39346727     0.24600
C517        C  0.43321247  0.17802695  0.41064553    -0.23400
C518        C  0.45317855  0.19223323  0.39462194     0.19500
F519        F  0.47239407  0.20793199  0.40986603    -0.13300
F520        F  0.46922877  0.21083443  0.34936275    -0.15700
F521        F  0.39492740  0.14714496  0.40758469    -0.15700
F522        F  0.39494267  0.14597292  0.34608858    -0.13300
C523        C  0.40986907  0.14380013  0.10246267     0.24700
C524        C  0.40275437  0.17077531  0.09275913    -0.23400
C525        C  0.39425203  0.19172086  0.11513876     0.19600
C526        C  0.39614574  0.18724699  0.14648677     0.24600
C527        C  0.40548039  0.16120463  0.15645100    -0.24600
C528        C  0.41059248  0.13886881  0.13396661     0.19500
F529        F  0.41936330  0.11308388  0.14251601    -0.13300
F530        F  0.41817996  0.12300663  0.08187017    -0.15700
F531        F  0.39139186  0.20932815  0.16713034    -0.15700
F532        F  0.38520253  0.21732813  0.10652974    -0.13300
C533        C  0.10923688  0.36401729  0.42656611     0.24700
C534        C  0.12409654  0.33845768  0.41959184    -0.23400
C535        C  0.14425669  0.33932596  0.39765831     0.19600
C536        C  0.15147936  0.36538250  0.38579288     0.24600
C537        C  0.13905387  0.39149222  0.39592309    -0.23400
C538        C  0.11678242  0.39018609  0.41502479     0.19500
F539        F  0.10331627  0.41433638  0.42410982    -0.13300
F540        F  0.08776359  0.36411242  0.44549485    -0.15700
F541        F  0.17170085  0.36521308  0.36517487    -0.15700
F542        F  0.15806675  0.31533796  0.38887503    -0.13300
C543        C  0.18527801  0.10596025  0.43983745     0.24700
C544        C  0.17194280  0.08027968  0.42989684    -0.23400
C545        C  0.14588919  0.08266682  0.41767307     0.19600
C546        C  0.13356839  0.10944386  0.41580090     0.24600
C547        C  0.14671766  0.13485985  0.42618881    -0.23400
C548        C  0.17301335  0.13276791  0.43748293     0.19500
F549        F  0.18615281  0.15654951  0.44860504    -0.13300
F550        F  0.21002855  0.10538598  0.45286821    -0.15700
F551        F  0.10795845  0.11039445  0.40529434    -0.15700
F552        F  0.13183742  0.05906686  0.40817004    -0.13300
C553        C  0.13504817  0.36694997  0.01580222     0.24700
C554        C  0.13373722  0.34644327  0.03823989    -0.23400
C555        C  0.13812227  0.35552181  0.06898185     0.19600
C556        C  0.14447108  0.38431155  0.07683921     0.24600
C557        C  0.14549155  0.40471207  0.05428106    -0.23400
C558        C  0.14026774  0.39567842  0.02383306     0.19500
F559        F  0.14144496  0.41458027  0.00153731    -0.13300
F560        F  0.13146652  0.35901940  0.98571702    -0.15700
F561        F  0.15101031  0.39196921  0.10628556    -0.15700
F562        F  0.13599822  0.33672568  0.09133194    -0.13300
C563        C  0.16047239  0.13784751  0.07251925     0.24700
C564        C  0.15399568  0.13994112  0.04150295    -0.23400
C565        C  0.15631507  0.11476798  0.02183093     0.19600
C566        C  0.16351836  0.08839024  0.03311999     0.24600
C567        C  0.16947139  0.08625838  0.06414018    -0.23400
C568        C  0.16837871  0.11142198  0.08363058     0.19500
F569        F  0.17535917  0.11041632  0.11359433    -0.13300
F570        F  0.15849351  0.16111494  0.09222883    -0.15700
F571        F  0.16617405  0.06520176  0.01333077    -0.15700
F572        F  0.15147545  0.11556597  0.99128096    -0.13300
C573        C  0.01972359  0.35107966  0.35996714     0.24700
C574        C  0.03036337  0.33639916  0.33360606    -0.23400
C575        C  0.05045769  0.31599579  0.33740993     0.19600
C576        C  0.05718899  0.30792256  0.36687714     0.24600
C577        C  0.04379614  0.31990186  0.39295238    -0.23400
C578        C  0.02617205  0.34269272  0.38941792     0.19500
F579        F  0.01322999  0.35488206  0.41398796    -0.13300
F580        F  0.00118558  0.37199859  0.35697538    -0.15700
F581        F  0.07500930  0.28630038  0.36973145    -0.15700
F582        F  0.06133575  0.30158952  0.31273848    -0.13300
C583        C  0.04176735  0.32447692  0.12493941     0.24700
C584        C  0.02628300  0.30514400  0.14104787    -0.23400
C585        C  0.01205674  0.28362767  0.12403380     0.19600
C586        C  0.01166262  0.28271839  0.09215308     0.24600
C587        C  0.02781346  0.30127360  0.07588190    -0.23400
C588        C  0.04292471  0.32221581  0.09278029     0.19500
F589        F  0.05890125  0.34054423  0.07831282    -0.13300
F590        F  0.05532618  0.34605330  0.14012193    -0.15700
F591        F  0.99634308  0.26235244  0.07735147    -0.15700
F592        F  0.99783770  0.26352739  0.13817725    -0.13300
C593        C  0.08504620  0.15960597  0.33957963     0.24700
C594        C  0.07016801  0.13738181  0.32544124    -0.23400
C595        C  0.05573306  0.11890084  0.34374198     0.19600
C596        C  0.05315761  0.12485609  0.37515418     0.24600
C597        C  0.06477099  0.14959313  0.38817918    -0.23400
C598        C  0.08237104  0.16564502  0.37083798     0.19500
F599        F  0.09379264  0.18975638  0.38348217    -0.13300
F600        F  0.09933438  0.17757128  0.32265881    -0.15700
F601        F  0.03637431  0.10897855  0.39164043    -0.15700
F602        F  0.04009557  0.09823801  0.33080175    -0.13300
C603        C  0.08278836  0.14404035  0.13030051     0.24700
C604        C  0.06496152  0.12156011  0.13458768    -0.23400
C605        C  0.05334856  0.10677207  0.10870035     0.19600
C606        C  0.05639549  0.11688485  0.07955083     0.24600
C607        C  0.07125893  0.14168497  0.07605465    -0.23400
C608        C  0.08590710  0.15403572  0.10106858     0.19500
F609        F  0.10031138  0.17827057  0.09780736    -0.13300
F610        F  0.09324633  0.15949711  0.15472115    -0.15700
F611        F  0.04157662  0.10514727  0.05591528    -0.15700
F612        F  0.03480917  0.08604016  0.11240827    -0.13300
O613        O  0.13188373  0.18231697  0.54295588    -0.74200
O614        O  0.10754579  0.15167922  0.51141850    -0.53100
C615        C  0.12551068  0.15660839  0.53174694     0.79500
O616        O  0.02085185  0.28215408  0.52583980    -0.58800
O617        O  0.04984054  0.31727904  0.52308719    -0.51800
C618        C  0.03203789  0.30461185  0.53806877     0.71500
O619        O  0.02688600  0.18384920  0.53527026    -0.73400
O620        O  0.06185204  0.15559993  0.52664957    -0.53900
C621        C  0.04370620  0.16572944  0.54473429     0.77500
O622        O  0.13204437  0.28551992  0.54694750    -0.58500
O623        O  0.10331385  0.31597502  0.52377668    -0.51600
C624        C  0.12314739  0.31078370  0.54121595     0.74100
Zr625      Zr  0.11898797  0.23449131  0.53425510     2.54700
O626        O  0.11320442  0.23580323  0.58948607    -0.79100
O627        O  0.16757136  0.23541355  0.54117990    -0.92500
Zr628      Zr  0.03793949  0.23394334  0.53115708     2.64700
O629        O  0.04914141  0.24058686  0.58574049    -0.97500
O630        O  0.99106705  0.22801376  0.54489842    -0.79500
O631        O  0.07877867  0.20784945  0.53109437    -0.82900
O632        O  0.07816164  0.26134897  0.53286306    -2.17600
O633        O  0.11989362  0.28766176  0.92026284    -0.66300
O634        O  0.09292804  0.31711424  0.94968463    -0.50800
C635        C  0.10920401  0.31238664  0.92748073     0.72500
O636        O  0.05222495  0.18518354  0.91190497    -0.59200
O637        O  0.06854020  0.15162202  0.94203718    -0.51100
C638        C  0.06271325  0.16084361  0.91577926     0.74300
O639        O  0.02397758  0.26803584  0.92241474    -0.70600
O640        O  0.04634973  0.30639819  0.94393734    -0.49200
C641        C  0.03374113  0.29323291  0.92146827     0.75700
O642        O  0.13369833  0.18920141  0.91673140    -0.65900
O643        O  0.11955819  0.15776673  0.95070279    -0.53100
C644        C  0.13107605  0.16358742  0.92608134     0.74100
Zr645      Zr  0.11933282  0.23762055  0.93736151     2.77500
O646        O  0.12681704  0.23662795  0.88232682    -0.96600
O647        O  0.16702001  0.24608747  0.94636411    -0.77500
Zr648      Zr  0.03849333  0.22455940  0.94492318     2.70100
O649        O  0.01065747  0.21685182  0.89914065    -0.78700
O650        O  0.99394265  0.21034163  0.96120695    -0.97800
Zr651      Zr  0.08877929  0.18124296  0.98327091     2.21500
Zr652      Zr  0.07691507  0.28834154  0.48793620     2.11100
O653        O  0.07526915  0.25629609  0.93990197    -2.46500
O654        O  0.08230209  0.21007429  0.94486672    -0.78500
O655        O  0.11806403  0.26743193  0.98295160    -0.70700
O656        O  0.03743447  0.20443875  0.48421169    -2.31700
O657        O  0.12725095  0.21181628  0.98156289    -2.27900
O658        O  0.03619423  0.26188513  0.48690854    -0.72500
H659        H  0.07818244  0.27478887  0.55033843     0.79500
H660        H  0.02279927  0.19097320  0.48194174     0.80600
H661        H  0.07426995  0.26578554  0.92106925     0.82800
H662        H  0.14400090  0.20148349  0.98000139     0.80500
H663        H  0.98112371  0.22882961  0.52530184     0.43500
H664        H  0.99361372  0.18920577  0.95904955     0.42500
H665        H  0.00145082  0.19837343  0.90137864     0.42100
H666        H  0.14418328  0.24654146  0.88012893     0.40100
H667        H  0.16951616  0.26667793  0.94325447     0.43200
H668        H  0.17267760  0.21575653  0.54601170     0.38000
H669        H  0.12693284  0.22244583  0.59675918     0.44100
H670        H  0.05821169  0.25918052  0.58953495     0.40500
H671        H  0.11327165  0.24976442  0.87424510     0.45400
H672        H  0.17054279  0.24687928  0.56060117     0.44200
H673        H  0.03197779  0.24297849  0.59656849     0.44300
H674        H  0.99324167  0.21513609  0.98348356     0.44700
O675        O  0.40769936  0.22931269  0.57264509    -0.74200
O676        O  0.39842761  0.18585404  0.54980809    -0.53100
C677        C  0.40404789  0.20242975  0.57379548     0.79500
O678        O  0.30820468  0.29214277  0.55101785    -0.58800
O679        O  0.31117696  0.30529505  0.50394111    -0.51800
C680        C  0.30754485  0.31211335  0.53188795     0.71500
O681        O  0.32017921  0.19131906  0.54814346    -0.73400
O682        O  0.34257878  0.15901339  0.03331224    -0.53900
C683        C  0.33285263  0.16742089  0.54161702     0.77500
O684        O  0.39618469  0.31401736  0.55846835    -0.58500
O685        O  0.36729132  0.33772586  0.52813669    -0.51600
C686        C  0.38060967  0.33495380  0.55323739     0.74100
Zr687      Zr  0.40462398  0.26635464  0.53725453     2.54700
O688        O  0.42833361  0.27971877  0.58485419    -0.79100
O689        O  0.44951726  0.27435486  0.51797607    -0.92500
Zr690      Zr  0.32593197  0.24314105  0.53616772     2.64700
O691        O  0.32766149  0.24003386  0.59149342    -0.97500
O692        O  0.27726954  0.23965694  0.53210424    -0.79500
O693        O  0.37078695  0.23341778  0.53309483    -0.82900
O694        O  0.35923984  0.27952290  0.53443011    -2.17600
O695        O  0.39063298  0.27149619  0.90672724    -0.66300
O696        O  0.38104613  0.31086980  0.93733672    -0.50800
C697        C  0.38553940  0.29825267  0.91093948     0.72500
O698        O  0.30308467  0.18050963  0.94753828    -0.59200
O699        O  0.33111170  0.15331547  0.97569881    -0.51100
C700        C  0.31161733  0.15617722  0.95719219     0.74300
O701        O  0.29941100  0.28374626  0.94814707    -0.70600
O702        O  0.33318332  0.31530253  0.96123108    -0.49200
C703        C  0.30999110  0.30932570  0.95030423     0.75700
O704        O  0.36637836  0.18343567  0.92080710    -0.65900
O705        O  0.38119431  0.15155918  0.95261452    -0.53100
C706        C  0.37572206  0.15867298  0.92528647     0.74100
Zr707      Zr  0.39037745  0.22753031  0.93305164     2.77500
O708        O  0.39097717  0.22017070  0.87749496    -0.96600
O709        O  0.43560644  0.21204758  0.91958477    -0.77500
Zr710      Zr  0.31354221  0.23316833  0.95904445     2.70100
O711        O  0.30146345  0.23002362  0.90494721    -0.78700
O712        O  0.26659479  0.23166534  0.97385355    -0.97800
Zr713      Zr  0.36546524  0.18283501  0.99562514     2.21500
Zr714      Zr  0.36742750  0.28906492  0.98439051     2.11100
O715        O  0.35257156  0.25721062  0.94351366    -2.46500
O716        O  0.35192695  0.20478658  0.95056320    -0.78500
O717        O  0.40617771  0.26142933  0.97173425    -0.70700
O718        O  0.32506627  0.21019345  0.00478013    -2.31700
O719        O  0.40524560  0.20362284  0.97702930    -2.27900
O720        O  0.32672559  0.26606394  0.99993077    -0.72500
H721        H  0.35497578  0.29128867  0.55217698     0.79500
H722        H  0.31048263  0.19813195  0.01064564     0.80600
H723        H  0.34671620  0.26698340  0.92584084     0.82800
H724        H  0.41831435  0.18882990  0.97236050     0.80500
H725        H  0.27180118  0.25602101  0.52011591     0.43500
H726        H  0.25814890  0.21820811  0.95839991     0.42500
H727        H  0.31870631  0.22662577  0.89425371     0.42100
H728        H  0.37194957  0.21685685  0.87165090     0.40100
H729        H  0.44559927  0.23003570  0.91722939     0.43200
H730        H  0.46142138  0.26346962  0.53116265     0.38000
H731        H  0.44498359  0.26819527  0.58441368     0.44100
H732        H  0.34701326  0.23841832  0.59638486     0.40500
H733        H  0.39970887  0.20139726  0.87338386     0.45400
H734        H  0.45341146  0.29463723  0.52389083     0.44200
H735        H  0.32255140  0.25931544  0.59985341     0.44300
H736        H  0.26656248  0.22129493  0.99294185     0.44700
O737        O  0.18185568  0.04350015  0.65345603    -0.74200
O738        O  0.15861441  0.01410557  0.61901480    -0.53100
C739        C  0.15973753  0.03300071  0.64101299     0.79500
O740        O  0.28865497  0.03970450  0.54537041    -0.58800
O741        O  0.31308411  0.03685960  0.58835797    -0.51800
C742        C  0.30594265  0.05020982  0.56459116     0.71500
O743        O  0.20251775  0.05734906  0.56417184    -0.73400
O744        O  0.16901440  0.02473581  0.56372543    -0.53900
C745        C  0.17771563  0.05064495  0.56160524     0.77500
O746        O  0.27866024  0.05714103  0.65991886    -0.58500
O747        O  0.29883152  0.01535522  0.65901201    -0.51600
C748        C  0.30042096  0.04208461  0.66124951     0.74100
Zr749      Zr  0.23227422  0.03747779  0.64669847     2.54700
O750        O  0.22412177  0.08827293  0.64216747    -0.79100
O751        O  0.23068645  0.04169635  0.70234055    -0.92500
Zr752      Zr  0.24222584  0.02862265  0.55583835     2.64700
O753        O  0.25146585  0.07524057  0.53608235    -0.97500
O754        O  0.22209454  0.02395735  0.50475869    -0.79500
O755        O  0.21762701  0.02549758  0.59843220    -0.82900
O756        O  0.26248728  0.03618489  0.60474513    -2.17600
O757        O  0.27603485  0.45242191  0.66051697    -0.66300
O758        O  0.30132745  0.47506282  0.62568542    -0.50800
C759        C  0.29898318  0.46036387  0.64912351     0.72500
O760        O  0.17629119  0.43406239  0.53983888    -0.59200
O761        O  0.15063126  0.44459664  0.58030206    -0.51100
C762        C  0.15837655  0.42701998  0.55844588     0.74300
O763        O  0.26375456  0.42536056  0.54670704    -0.70600
O764        O  0.29643936  0.45397858  0.56873967    -0.49200
C765        C  0.28773949  0.43008800  0.55590271     0.75700
O766        O  0.17837348  0.44412278  0.66541222    -0.65900
O767        O  0.14758928  0.46682081  0.63649326    -0.53100
C768        C  0.15371240  0.45120284  0.65835888     0.74100
Zr769      Zr  0.22587122  0.45565715  0.64772128     2.77500
O770        O  0.22850888  0.40372346  0.64633730    -0.96600
O771        O  0.22850151  0.45776472  0.70338782    -0.77500
Zr772      Zr  0.22093395  0.44612785  0.55570966     2.70100
O773        O  0.21487175  0.39558783  0.56409984    -0.78700
O774        O  0.23041762  0.43338640  0.50246253    -0.97800
Zr775      Zr  0.17233734  0.48969722  0.59953967     2.21500
Zr776      Zr  0.29098158  0.99481772  0.60942176     2.11100
O777        O  0.24797502  0.45268995  0.60010142    -2.46500
O778        O  0.20234371  0.45404843  0.60269552    -0.78500
O779        O  0.26036379  0.99693522  0.65202052    -0.70700
O780        O  0.22005305  0.98365107  0.54933598    -2.31700
O781        O  0.19753097  0.49626602  0.64691213    -2.27900
O782        O  0.27178665  0.98865321  0.55910105    -0.72500
H783        H  0.27115067  0.05458725  0.60567970     0.79500
H784        H  0.21006041  0.98187691  0.53035029     0.80600
H785        H  0.25986320  0.43679631  0.60231622     0.82800
H786        H  0.18641716  0.49806062  0.66489287     0.80500
H787        H  0.20781604  0.03861785  0.50455953     0.43500
H788        H  0.21541346  0.42081736  0.49544577     0.42500
H789        H  0.22189884  0.38547850  0.54536201     0.42100
H790        H  0.24793341  0.39956313  0.64778875     0.40100
H791        H  0.23590579  0.47695234  0.70904188     0.43200
H792        H  0.23663857  0.06150854  0.70773205     0.38000
H793        H  0.24009365  0.09516511  0.63145952     0.44100
H794        H  0.23475724  0.08097013  0.52569941     0.40500
H795        H  0.22126542  0.39860581  0.66631216     0.45400
H796        H  0.24568964  0.02961416  0.70901126     0.44200
H797        H  0.25278419  0.08843856  0.55450499     0.44300
H798        H  0.22795715  0.45126210  0.49183833     0.44700
O799        O  0.20506288  0.06132202  0.90307556    -0.74200
O800        O  0.16890886  0.03342862  0.89228742    -0.53100
C801        C  0.18019297  0.05821581  0.89637485     0.79500
O802        O  0.29131613  0.02493071  0.81392311    -0.58800
O803        O  0.31770220  0.00280640  0.84819841    -0.51800
C804        C  0.31483864  0.01743650  0.82471831     0.71500
O805        O  0.19286845  0.03069402  0.80975765    -0.73400
O806        O  0.16232084  0.01035729  0.84039074    -0.53900
C807        C  0.16808910  0.02484087  0.81765520     0.77500
O808        O  0.28181270  0.02486354  0.94170046    -0.58500
O809        O  0.31277268  0.02188013  0.90651736    -0.51600
C810        C  0.30099250  0.03638873  0.92813303     0.74100
Zr811      Zr  0.23670200  0.02779564  0.92230196     2.54700
O812        O  0.24573462  0.07635385  0.94227249    -0.79100
O813        O  0.21509109  0.03176605  0.97220220    -0.92500
Zr814      Zr  0.24140792  0.01933354  0.82710057     2.64700
O815        O  0.24389665  0.07108547  0.82517573    -0.97500
O816        O  0.24289895  0.01533721  0.77144004    -0.79500
O817        O  0.21667208  0.02654299  0.87279153    -0.82900
O818        O  0.26327591  0.02331526  0.87654437    -2.17600
O819        O  0.25187022  0.43074167  0.94907748    -0.66300
O820        O  0.28647500  0.44346134  0.92016047    -0.50800
C821        C  0.27478638  0.42556956  0.93721002     0.72500
O822        O  0.18064753  0.42184303  0.81385891    -0.59200
O823        O  0.14747729  0.45119901  0.83340472    -0.51100
C824        C  0.15565091  0.43031249  0.81616047     0.74300
O825        O  0.27684762  0.43308425  0.82746678    -0.70600
O826        O  0.29927940  0.45717433  0.86644716    -0.49200
C827        C  0.29880713  0.44115496  0.84207762     0.75700
O828        O  0.17406332  0.41671237  0.90862668    -0.65900
O829        O  0.14213383  0.44221936  0.88516970    -0.53100
C830        C  0.15124172  0.41880563  0.89571377     0.74100
Zr831      Zr  0.21097252  0.44576295  0.92493367     2.77500
O832        O  0.21583198  0.39714420  0.94161765    -0.96600
O833        O  0.18853740  0.45445490  0.97365128    -0.77500
Zr834      Zr  0.22649107  0.43840589  0.83447572     2.70100
O835        O  0.23044887  0.38690580  0.83760818    -0.78700
O836        O  0.23165811  0.43615776  0.77908051    -0.97800
Zr837      Zr  0.16898190  0.48301085  0.86823255     2.21500
Zr838      Zr  0.26753248  0.48471461  0.89352765     2.11100
O839        O  0.24298100  0.44118651  0.88537935    -2.46500
O840        O  0.19909337  0.44820493  0.87505858    -0.78500
O841        O  0.23618546  0.48842394  0.93419463    -0.70700
O842        O  0.20131533  0.47996399  0.82688160    -2.31700
O843        O  0.18282852  0.48635781  0.92037332    -2.27900
O844        O  0.25175949  0.48106905  0.84124272    -0.72500
H845        H  0.27475519  0.03982213  0.87590990     0.79500
H846        H  0.19421528  0.47748473  0.80630789     0.80600
H847        H  0.25322304  0.42382074  0.88630602     0.82800
H848        H  0.16741727  0.48669983  0.93360250     0.80500
H849        H  0.22671246  0.00415752  0.76523765     0.43500
H850        H  0.24756176  0.44814140  0.77549362     0.42500
H851        H  0.23749708  0.38011807  0.81739789     0.42100
H852        H  0.21799294  0.38496421  0.92256816     0.40100
H853        H  0.17961453  0.43608398  0.97696812     0.43200
H854        H  0.21766639  0.01306299  0.98121229     0.38000
H855        H  0.23033629  0.08179124  0.95551229     0.44100
H856        H  0.25114583  0.07424742  0.80463919     0.40500
H857        H  0.19829935  0.39161110  0.94995869     0.45400
H858        H  0.19561767  0.03308007  0.96788608     0.44200
H859        H  0.22496560  0.07736652  0.82405707     0.44300
H860        H  0.23766237  0.41636635  0.77382129     0.44700
O861        O  0.02967575  0.05890236  0.66864942    -0.74200
O862        O  0.06097190  0.08184988  0.69935909    -0.53100
C863        C  0.05410713  0.06323433  0.67857449     0.79500
O864        O  0.44115497  0.17928617  0.70797403    -0.58800
O865        O  0.41384972  0.14145358  0.70805831    -0.51800
C866        C  0.42124895  0.16494518  0.69675334     0.71500
O867        O  0.03706580  0.17686963  0.69018636    -0.73400
O868        O  0.06220787  0.13826063  0.68850990    -0.53900
C869        C  0.05333788  0.16030699  0.67581648     0.77500
O870        O  0.43362069  0.07045228  0.66944763    -0.58500
O871        O  0.40990312  0.08468738  0.71174119    -0.51600
C872        C  0.41108063  0.07495039  0.68427675     0.74100
Zr873      Zr  0.48401182  0.07596126  0.68182997     2.54700
O874        O  0.48257798  0.09151236  0.62965534    -0.79100
O875        O  0.47808973  0.02668069  0.66268139    -0.92500
Zr876      Zr  0.48659049  0.16110855  0.70698923     2.64700
O877        O  0.47663780  0.16329214  0.65254866    -0.97500
O878        O  0.48934018  0.21305182  0.70918546    -0.79500
O879        O  0.00855078  0.11808931  0.69133228    -0.82900
O880        O  0.46146911  0.11881769  0.69607635    -2.17600
O881        O  0.44294058  0.04266713  0.78004104    -0.66300
O882        O  0.41323341  0.07571239  0.76358003    -0.50800
C883        C  0.41847961  0.05222636  0.77556747     0.72500
O884        O  0.03381252  0.14445623  0.80732083    -0.59200
O885        O  0.06632983  0.13476567  0.77245136    -0.51100
C886        C  0.05774750  0.13725188  0.79996118     0.74300
O887        O  0.44982337  0.13846498  0.82167900    -0.70600
O888        O  0.41554981  0.12932684  0.78806669    -0.49200
C889        C  0.42500882  0.13341465  0.81534794     0.75700
O890        O  0.03981193  0.05995088  0.78368423    -0.65900
O891        O  0.06755132  0.08588382  0.75474825    -0.53100
C892        C  0.06384513  0.06732611  0.77430568     0.74100
Zr893      Zr  0.49159064  0.05820508  0.77041876     2.77500
O894        O  0.48986678  0.03794843  0.82044196    -0.96600
O895        O  0.49933311  0.01077591  0.74711031    -0.77500
Zr896      Zr  0.49143820  0.14224208  0.79365571     2.70100
O897        O  0.49790241  0.15820439  0.84716500    -0.78700
O898        O  0.49117732  0.19410196  0.79204252    -0.97800
Zr899      Zr  0.03864234  0.11665630  0.73018725     2.21500
Zr900      Zr  0.43927261  0.11142560  0.74280558     2.11100
O901        O  0.46649786  0.09937960  0.78519630    -2.46500
O902        O  0.01163531  0.11573615  0.77121617    -0.78500
O903        O  0.46232462  0.06768037  0.72879577    -0.70700
O904        O  0.01899115  0.16289475  0.73797975    -2.31700
O905        O  0.01297898  0.07310241  0.72840299    -2.27900
O906        O  0.46264874  0.15475540  0.75337782    -0.72500
H907        H  0.44965789  0.12174387  0.67903039     0.79500
H908        H  0.03203342  0.17798126  0.74168776     0.80600
H909        H  0.45658440  0.09309599  0.80240620     0.82800
H910        H  0.02374023  0.05597233  0.72670294     0.80500
H911        H  0.49864936  0.21811594  0.72881224     0.43500
H912        H  0.47351615  0.19996934  0.80048819     0.42500
H913        H  0.49629303  0.14069722  0.85868696     0.42100
H914        H  0.50802498  0.03023366  0.82408559     0.40100
H915        H  0.51808970  0.00622398  0.75266191     0.43200
H916        H  0.96892639  0.01806631  0.67337750     0.38000
H917        H  0.96964373  0.05477309  0.62552115     0.44100
H918        H  0.47731312  0.18375413  0.64816512     0.40500
H919        H  0.48832423  0.05467885  0.83515256     0.45400
H920        H  0.46151584  0.02049036  0.67273222     0.44200
H921        H  0.49210710  0.15426314  0.64182912     0.44300
H922        H  0.50432316  0.20089422  0.80788712     0.44700
O923        O  0.00602745  0.30778037  0.67933981    -0.74200
O924        O  0.03957956  0.33737042  0.68707902    -0.53100
C925        C  0.02642884  0.31989076  0.66926273     0.79500
O926        O  0.42948035  0.43820799  0.68855493    -0.58800
O927        O  0.39567372  0.41683634  0.71406552    -0.51800
C928        C  0.40406805  0.43463124  0.69548132     0.71500
O929        O  0.02710562  0.42120411  0.68845320    -0.73400
O930        O  0.05078016  0.38668769  0.71168506    -0.53900
C931        C  0.04961119  0.40881456  0.69605629     0.77500
O932        O  0.41559168  0.33673055  0.67134680    -0.58500
O933        O  0.39009711  0.36953011  0.69861088    -0.51600
C934        C  0.39582898  0.35419830  0.67411871     0.74100
Zr935      Zr  0.45903343  0.33277621  0.69555154     2.54700
O936        O  0.46167142  0.33574482  0.64033891    -0.79100
O937        O  0.44232319  0.28386782  0.69181260    -0.92500
Zr938      Zr  0.47594892  0.41781272  0.70292004     2.64700
O939        O  0.47863476  0.42634067  0.64858220    -0.97500
O940        O  0.48709338  0.46738764  0.71547100    -0.79500
O941        O  0.99102212  0.36956641  0.69458434    -0.82900
O942        O  0.44475903  0.38057157  0.69968125    -2.17600
O943        O  0.41002586  0.32543625  0.78153948    -0.66300
O944        O  0.38835028  0.36685820  0.78237957    -0.50800
C945        C  0.39337387  0.34306983  0.79414194     0.72500
O946        O  0.02639541  0.41013076  0.79800223    -0.59200
O947        O  0.04991167  0.37715833  0.76837536    -0.51100
C948        C  0.04862466  0.39751537  0.78863291     0.74300
O949        O  0.42932893  0.42855818  0.81262614    -0.70600
O950        O  0.41026263  0.43020639  0.76717535    -0.49200
C951        C  0.40812084  0.43150724  0.79585102     0.75700
O952        O  0.99860483  0.32013330  0.80233691    -0.65900
O953        O  0.03618162  0.32906712  0.77527321    -0.53100
C954        C  0.02404977  0.32254805  0.79994782     0.74100
Zr955      Zr  0.45858303  0.33056880  0.78414427     2.77500
O956        O  0.44542482  0.32059583  0.83610594    -0.96600
O957        O  0.46525120  0.27902051  0.78250110    -0.77500
Zr958      Zr  0.47532753  0.41398282  0.79386676     2.70100
O959        O  0.47863107  0.41162428  0.84916955    -0.78700
O960        O  0.48158712  0.46546281  0.79862674    -0.97800
Zr961      Zr  0.01825829  0.35758639  0.73385810     2.21500
Zr962      Zr  0.41770808  0.38425564  0.74349247     2.11100
O963        O  0.44181977  0.37752150  0.79048441    -2.46500
O964        O  0.99081457  0.35887378  0.77742586    -0.78500
O965        O  0.43180659  0.33555304  0.73951811    -0.70700
O966        O  0.00186006  0.40574516  0.74257439    -2.31700
O967        O  0.98826955  0.31800347  0.72674041    -2.27900
O968        O  0.45026856  0.42234262  0.74847498    -0.72500
H969        H  0.43510739  0.38490274  0.68167897     0.79500
H970        H  0.01619399  0.41951483  0.74517523     0.80600
H971        H  0.43129606  0.37851985  0.80884900     0.82800
H972        H  0.99730109  0.29975645  0.72727395     0.80500
H973        H  0.98606476  0.46350717  0.74074550     0.43500
H974        H  0.46316204  0.47323162  0.80050424     0.42500
H975        H  0.47198553  0.39229246  0.85318542     0.42100
H976        H  0.43480341  0.30275236  0.83371858     0.40100
H977        H  0.45892875  0.27209672  0.76192585     0.43200
H978        H  0.45323334  0.27374696  0.70678420     0.38000
H979        H  0.98301683  0.35767628  0.62949028     0.44100
H980        H  0.48690820  0.40881689  0.63914621     0.40500
H981        H  0.46202188  0.31487991  0.84670670     0.45400
H982        H  0.44848994  0.27595055  0.67163385     0.44200
H983        H  0.45990193  0.42588680  0.64094730     0.44300
H984        H  0.48956630  0.46910679  0.81926572     0.44700
C985        C  0.33130062  0.42664320  0.79987985     0.24700
C986        C  0.32640220  0.43405496  0.83069267    -0.23400
C987        C  0.34896556  0.43917601  0.85048098     0.19600
C988        C  0.37520598  0.43910508  0.83927735     0.24600
C989        C  0.38011320  0.43263501  0.80827965    -0.23400
C990        C  0.35769211  0.42535211  0.78896304     0.19500
F991        F  0.36103262  0.41609214  0.75939186    -0.13300
F992        F  0.31060680  0.42139073  0.77999081    -0.15700
F993        F  0.39580443  0.44541781  0.85896074    -0.15700
F994        F  0.34580478  0.44496414  0.88100311    -0.13300
C995        C  0.08738237  0.42994632  0.78354545     0.24700
C996        C  0.07594288  0.40705058  0.79828206    -0.23400
C997        C  0.09366833  0.38714372  0.81087763     0.19600
C998        C  0.12157691  0.39183796  0.81180980     0.24600
C999        C  0.13267889  0.41622262  0.79974064    -0.23400
C1000       C  0.11532653  0.43412215  0.78373715     0.19500
F1001       F  0.12548680  0.45700789  0.77001666    -0.13300
F1002       F  0.07152495  0.44757341  0.76767298    -0.15700
F1003       F  0.13776153  0.37300695  0.82541250    -0.15700
F1004       F  0.08398643  0.36253842  0.82142275    -0.13300
C1005       C  0.36622179  0.01932929  0.82601251     0.24700
C1006       C  0.34153209  0.02485219  0.81038532    -0.23400
C1007       C  0.34354909  0.03557412  0.78116859     0.19600
C1008       C  0.36888152  0.04142857  0.76869465     0.24600
C1009       C  0.39327284  0.03737777  0.78512730    -0.23400
C1010       C  0.39142735  0.02535576  0.81350974     0.19500
F1011       F  0.41396777  0.02105528  0.83023361    -0.13300
F1012       F  0.36637303  0.00886560  0.85431788    -0.15700
F1013       F  0.36946803  0.05204218  0.74051556    -0.15700
F1014       F  0.32109449  0.04074761  0.76462220    -0.13300
C1015       C  0.11387142  0.07331940  0.78617376     0.24700
C1016       C  0.09038335  0.05567838  0.78583845    -0.23400
C1017       C  0.09415921  0.02698039  0.79230249     0.19600
C1018       C  0.11998547  0.01661139  0.79968057     0.24600
C1019       C  0.14308666  0.03464582  0.80138284    -0.23400
C1020       C  0.13950676  0.06306352  0.79407225     0.19500
F1021       F  0.16055770  0.08146789  0.79607431    -0.13300
F1022       F  0.11222731  0.10109793  0.77915257    -0.15700
F1023       F  0.12236091  0.98861616  0.80573459    -0.15700
F1024       F  0.07305216  0.00866889  0.79066157    -0.13300
C1025       C  0.37372835  0.44408093  0.65117109     0.24700
C1026       C  0.38081001  0.44988705  0.68191806    -0.23400
C1027       C  0.36011769  0.45948274  0.70212674     0.19600
C1028       C  0.33313464  0.46127664  0.69243588     0.24600
C1029       C  0.32586376  0.45317930  0.66218283    -0.23400
C1030       C  0.34672192  0.44496488  0.64162108     0.19500
F1031       F  0.34085100  0.43772799  0.61183985    -0.13300
F1032       F  0.39279350  0.43649203  0.63042465    -0.15700
F1033       F  0.31427762  0.47123524  0.71254397    -0.15700
F1034       F  0.36597637  0.46518725  0.73211994    -0.13300
C1035       C  0.09986171  0.40214244  0.68724990     0.24700
C1036       C  0.07678077  0.42019972  0.68776723    -0.23400
C1037       C  0.08082537  0.44926374  0.68338320     0.19600
C1038       C  0.10653887  0.45963742  0.67699525     0.24600
C1039       C  0.12927127  0.44131867  0.67465224    -0.23400
C1040       C  0.12563107  0.41261724  0.68084631     0.19500
F1041       F  0.14664632  0.39421451  0.67861952    -0.13300
F1042       F  0.09753175  0.37384779  0.69187349    -0.15700
F1043       F  0.10900514  0.48777235  0.67179104    -0.15700
F1044       F  0.05992363  0.46783112  0.68544995    -0.13300
C1045       C  0.36171337  0.08676148  0.68430220     0.24700
C1046       C  0.38331690  0.07016890  0.67127499    -0.23400
C1047       C  0.37674810  0.04688728  0.65138543     0.19600
C1048       C  0.34972153  0.03880497  0.64701389     0.24600
C1049       C  0.32838847  0.05394385  0.66232432    -0.23400
C1050       C  0.33485848  0.07841723  0.68033439     0.19500
F1051       F  0.31545947  0.09296295  0.69626994    -0.13300
F1052       F  0.36656625  0.11025470  0.70308848    -0.15700
F1053       F  0.34474143  0.01516592  0.62864649    -0.15700
F1054       F  0.39640182  0.03071367  0.63788325    -0.13300
C1055       C  0.08645693  0.05309106  0.63708812     0.24700
C1056       C  0.07746044  0.04733272  0.66619574    -0.23400
C1057       C  0.09587387  0.03607855  0.68718260     0.19600
C1058       C  0.12322699  0.03333658  0.68006124     0.24600
C1059       C  0.13265342  0.04158186  0.65171518    -0.23400
C1060       C  0.11360951  0.04993673  0.62982168     0.19500
F1061       F  0.12124211  0.05454521  0.60091074    -0.13300
F1062       F  0.06924735  0.06356989  0.61630562    -0.15700
F1063       F  0.14023673  0.02172807  0.70034852    -0.15700
F1064       F  0.08742631  0.02906239  0.71522846    -0.13300
C1065       C  0.31496158  0.36381185  0.52011510     0.24700
C1066       C  0.30644994  0.34353009  0.54101649    -0.23400
C1067       C  0.29772107  0.35406031  0.56990297     0.19600
C1068       C  0.29688044  0.38367408  0.57711420     0.24600
C1069       C  0.30346506  0.40357070  0.55515096    -0.23400
C1070       C  0.31312120  0.39317342  0.52694557     0.19500
F1071       F  0.31807012  0.41146029  0.50464411    -0.13300
F1072       F  0.32484902  0.35559606  0.49240347    -0.15700
F1073       F  0.28641997  0.39295195  0.60440759    -0.15700
F1074       F  0.28864133  0.33591437  0.59062209    -0.13300
C1075       C  0.32027326  0.13026413  0.57900427     0.24700
C1076       C  0.32188259  0.13908192  0.54893575    -0.23400
C1077       C  0.31939666  0.11820354  0.52462603     0.19600
C1078       C  0.31665362  0.08924172  0.52998148     0.24600
C1079       C  0.31518344  0.08004683  0.55994812    -0.23400
C1080       C  0.31673159  0.10104443  0.58449361     0.19500
F1081       F  0.31387449  0.09353576  0.61372985    -0.13300
F1082       F  0.37098127  0.11701111  0.05002082    -0.15700
F1083       F  0.31528000  0.07004694  0.50558418    -0.15700
F1084       F  0.32009478  0.12593811  0.49525167    -0.13300
C1085       C  0.29900633  0.38066109  0.91636255     0.24700
C1086       C  0.28536229  0.39572743  0.94045015    -0.23400
C1087       C  0.27656607  0.37986264  0.96501367     0.19600
C1088       C  0.28128684  0.35037846  0.96575802     0.24600
C1089       C  0.29530840  0.33548781  0.94223135    -0.23400
C1090       C  0.30419676  0.35105873  0.91748153     0.19500
F1091       F  0.31896912  0.33775352  0.89495665    -0.13300
F1092       F  0.30701706  0.39434763  0.89148065    -0.15700
F1093       F  0.27402434  0.33669632  0.99095447    -0.15700
F1094       F  0.26369500  0.39310478  0.98897011    -0.13300
C1095       C  0.30556330  0.11636166  0.91717019     0.24700
C1096       C  0.30057753  0.12778935  0.94700658    -0.23400
C1097       C  0.29681274  0.10849960  0.97021353     0.19600
C1098       C  0.30004730  0.07910627  0.96439755     0.24600
C1099       C  0.30533806  0.06757866  0.93471568    -0.23400
C1100       C  0.30826563  0.08659152  0.91107453     0.19500
F1101       F  0.31353019  0.07645455  0.88208520    -0.13300
F1102       F  0.30873170  0.13409608  0.89413447    -0.15700
F1103       F  0.29775716  0.06170815  0.98799182    -0.15700
F1104       F  0.29229828  0.11852416  0.99945796    -0.13300
C1105       C  0.37338761  0.30839460  0.82731802     0.24700
C1106       C  0.38247384  0.33619507  0.82404140    -0.23400
C1107       C  0.38798266  0.35385575  0.85058600     0.19600
C1108       C  0.38783843  0.34243752  0.87967468     0.24600
C1109       C  0.38186758  0.31339958  0.88229398    -0.23400
C1110       C  0.37236009  0.29739196  0.85607635     0.19500
F1111       F  0.36285870  0.27042099  0.85799545    -0.13300
F1112       F  0.36749175  0.29103464  0.80227920    -0.15700
F1113       F  0.39523003  0.35912573  0.90466552    -0.15700
F1114       F  0.39617825  0.38117217  0.84822822    -0.13300
C1115       C  0.39412546  0.37164125  0.59237200     0.24700
C1116       C  0.37451631  0.35257520  0.58113700    -0.23400
C1117       C  0.35716487  0.34028063  0.60233557     0.19600
C1118       C  0.36128792  0.34444349  0.63386998     0.24600
C1119       C  0.38312078  0.36047813  0.64482080    -0.23400
C1120       C  0.39867418  0.37520981  0.62384127     0.19500
F1121       F  0.42093154  0.38979293  0.63316576    -0.13300
F1122       F  0.41211804  0.38250388  0.57296988    -0.15700
F1123       F  0.34682891  0.32891981  0.65321901    -0.15700
F1124       F  0.33973022  0.31952232  0.59304879    -0.13300
C1125       C  0.41733027  0.11851192  0.86831912     0.24700
C1126       C  0.40726258  0.13054553  0.84167178    -0.23400
C1127       C  0.38142540  0.14201055  0.84189540     0.19600
C1128       C  0.36844333  0.14712695  0.86973568     0.24600
C1129       C  0.38116265  0.14037594  0.89750493    -0.23400
C1130       C  0.40417507  0.12326023  0.89620770     0.19500
F1131       F  0.41591117  0.11460048  0.92220437    -0.13300
F1132       F  0.44093934  0.10402125  0.86776202    -0.15700
F1133       F  0.34547862  0.16267612  0.86978238    -0.15700
F1134       F  0.37022617  0.15154572  0.81598381    -0.13300
C1135       C  0.40418853  0.16251057  0.61163994     0.24700
C1136       C  0.40522288  0.19170673  0.60569948    -0.23400
C1137       C  0.40608967  0.21170329  0.63143226     0.19600
C1138       C  0.40867777  0.20281295  0.66128841     0.24600
C1139       C  0.40989971  0.17375166  0.66697660    -0.24600
C1140       C  0.40636558  0.15367213  0.64190207     0.19500
F1141       F  0.40686477  0.12532117  0.64629171    -0.13300
F1142       F  0.40188609  0.14240303  0.58823603    -0.15700
F1143       F  0.41081455  0.22289420  0.68479246    -0.15700
F1144       F  0.40460091  0.24030314  0.62813649    -0.13300
C1145       C  0.09987361  0.36230813  0.91053234     0.24700
C1146       C  0.11670409  0.33784734  0.91038737    -0.23400
C1147       C  0.14225251  0.33966813  0.89755337     0.19600
C1148       C  0.15202354  0.36596549  0.88915167     0.24600
C1149       C  0.13654446  0.39121085  0.89331554    -0.23400
C1150       C  0.10967965  0.38876234  0.90177034     0.19500
F1151       F  0.09376072  0.41225431  0.90435908    -0.13300
F1152       F  0.07449878  0.36119168  0.92125283    -0.15700
F1153       F  0.17772436  0.36720282  0.87914943    -0.15700
F1154       F  0.15896223  0.31675825  0.89606072    -0.13300
C1155       C  0.17667802  0.11016689  0.88493329     0.24700
C1156       C  0.16458124  0.08455640  0.89382246    -0.23400
C1157       C  0.13873692  0.08541231  0.90536347     0.19600
C1158       C  0.12694836  0.11146235  0.91306359     0.24600
C1159       C  0.14044070  0.13757808  0.90848433    -0.23400
C1160       C  0.16433179  0.13668766  0.89183717     0.19500
F1161       F  0.17679630  0.16119572  0.88480398    -0.13300
F1162       F  0.20106432  0.10962553  0.87129596    -0.15700
F1163       F  0.10339291  0.11066007  0.92822703    -0.15700
F1164       F  0.12623376  0.06116581  0.91321323    -0.13300
C1165       C  0.15346329  0.34919613  0.52958541     0.24700
C1166       C  0.13754056  0.33699505  0.55159345    -0.23400
C1167       C  0.12779172  0.35465821  0.57612215     0.19600
C1168       C  0.13391248  0.38409467  0.57845728     0.24600
C1169       C  0.14896242  0.39661308  0.55546734    -0.23400
C1170       C  0.15860114  0.37845355  0.53099645     0.19500
F1171       F  0.17274050  0.38887456  0.50767347    -0.13300
F1172       F  0.16199480  0.33301978  0.50479787    -0.15700
F1173       F  0.12481363  0.40023988  0.60292711    -0.15700
F1174       F  0.11134081  0.34361123  0.59701472    -0.13300
C1175       C  0.14638444  0.12450512  0.57096708     0.24700
C1176       C  0.13903890  0.12954764  0.54071164    -0.23400
C1177       C  0.14125486  0.10633529  0.51842474     0.19600
C1178       C  0.15108291  0.07956165  0.52595177     0.24600
C1179       C  0.15959512  0.07504676  0.55582311    -0.23400
C1180       C  0.15705798  0.09777377  0.57825859     0.19500
F1181       F  0.16530216  0.09405066  0.60737528    -0.13300
F1182       F  0.14276237  0.14511673  0.59354725    -0.15700
F1183       F  0.15369892  0.05852922  0.50351724    -0.15700
F1184       F  0.13426983  0.10958672  0.48879541    -0.13300
C1185       C  0.03242607  0.33999586  0.85306421     0.24700
C1186       C  0.03820115  0.31956318  0.82901649    -0.23400
C1187       C  0.04575653  0.29213226  0.83618608     0.19600
C1188       C  0.04453328  0.28416404  0.86635586     0.24600
C1189       C  0.03596608  0.30370553  0.89023000    -0.23400
C1190       C  0.03099616  0.33206413  0.88347313     0.19500
F1191       F  0.02255533  0.35133656  0.90563926    -0.13300
F1192       F  0.02523060  0.36689536  0.84655405    -0.15700
F1193       F  0.05053939  0.25665730  0.87185044    -0.15700
F1194       F  0.05115181  0.27205339  0.81349399    -0.13300
C1195       C  0.04508540  0.33569975  0.61915260     0.24700
C1196       C  0.03119082  0.31570838  0.63596770    -0.23400
C1197       C  0.01589364  0.29447564  0.61983781     0.19600
C1198       C  0.01284501  0.29446169  0.58840717     0.24600
C1199       C  0.02862379  0.31217642  0.57120891    -0.23400
C1200       C  0.04429466  0.33354150  0.58691830     0.19500
F1201       F  0.05835726  0.35263960  0.57120165    -0.13300
F1202       F  0.05877889  0.35757428  0.63368811    -0.15700
F1203       F  0.99506612  0.27590651  0.57488047    -0.15700
F1204       F  0.00302404  0.27371376  0.63453239    -0.13300
C1205       C  0.09085146  0.15255663  0.83755753     0.24700
C1206       C  0.07460452  0.13043196  0.82583044    -0.23400
C1207       C  0.06272197  0.11181255  0.84619038     0.19600
C1208       C  0.06114213  0.11979416  0.87727508     0.24600
C1209       C  0.07204124  0.14592146  0.88775842    -0.23400
C1210       C  0.08796668  0.16153884  0.86806324     0.19500
F1211       F  0.09668854  0.18807603  0.87684589    -0.13300
F1212       F  0.10351703  0.16989789  0.81843078    -0.15700
F1213       F  0.04491155  0.10496823  0.89547302    -0.15700
F1214       F  0.04654649  0.09037043  0.83523365    -0.13300
C1215       C  0.06737531  0.14150197  0.62282456     0.24700
C1216       C  0.05626704  0.16331867  0.64233683    -0.23400
C1217       C  0.04158851  0.18498393  0.62894348     0.19600
C1218       C  0.03355274  0.18180308  0.59850989     0.24600
C1219       C  0.04583763  0.16162445  0.57829791    -0.23400
C1220       C  0.06322481  0.14143402  0.59086667     0.19500
F1221       F  0.07506516  0.12085909  0.57257847    -0.13300
F1222       F  0.08188367  0.12017502  0.63460931    -0.15700
F1223       F  0.01299382  0.19815550  0.58918542    -0.15700
F1224       F  0.03329938  0.20849218  0.64572752    -0.13300
O1225       O  0.13527123  0.69268866  0.05261974    -0.74200
O1226       O  0.10675367  0.66739153  0.02065432    -0.53100
C1227       C  0.12309250  0.66919368  0.04313725     0.79500
O1228       O  0.05451332  0.81313225  0.03008238    -0.58800
O1229       O  0.09042344  0.83977055  0.03216782    -0.51800
C1230       C  0.06861242  0.83223688  0.04445260     0.71500
O1231       O  0.05533443  0.71894867  0.06429692    -0.73400
O1232       O  0.05889630  0.68035842  0.03087627    -0.53900
C1233       C  0.05505916  0.69206194  0.05782127     0.77500
O1234       O  0.16161784  0.79022878  0.05002368    -0.58500
O1235       O  0.13870103  0.82692918  0.02930361    -0.51600
C1236       C  0.15770869  0.81707540  0.04515483     0.74100
Zr1237     Zr  0.13827869  0.74339828  0.03680019     2.54700
O1238       O  0.14283042  0.74479037  0.09228299    -0.79100
O1239       O  0.18533949  0.73090295  0.02988445    -0.92500
Zr1240     Zr  0.05904246  0.76263456  0.03871171     2.64700
O1241       O  0.06420274  0.77446724  0.09320741    -0.97500
O1242       O  0.01090543  0.76196076  0.04790015    -0.79500
O1243       O  0.09323457  0.72793150  0.03562039    -0.82900
O1244       O  0.10412357  0.77914745  0.03965847    -2.17600
O1245       O  0.14717244  0.78569841  0.42551645    -0.66300
O1246       O  0.14879232  0.80660951  0.47172717    -0.50800
C1247       C  0.15040437  0.80841680  0.44318707     0.72500
O1248       O  0.04873608  0.71776505  0.41897972    -0.59200
O1249       O  0.05312354  0.67872528  0.44684170    -0.51100
C1250       C  0.05043484  0.69084825  0.42140457     0.74300
O1251       O  0.05947421  0.80667356  0.42549615    -0.70600
O1252       O  0.09168180  0.83334350  0.45088565    -0.49200
C1253       C  0.07534431  0.82827787  0.42811229     0.75700
O1254       O  0.12603290  0.68815857  0.42195303    -0.65900
O1255       O  0.09910228  0.66422432  0.45341126    -0.53100
C1256       C  0.11408914  0.66511673  0.43005438     0.74100
Zr1257     Zr  0.13129619  0.73862522  0.44351024     2.77500
O1258       O  0.14011500  0.73247020  0.38887791    -0.96600
O1259       O  0.17875869  0.73068905  0.45379277    -0.77500
Zr1260     Zr  0.05279083  0.76127317  0.44904956     2.70100
O1261       O  0.03094379  0.76444420  0.39930944    -0.78700
O1262       O  0.00605456  0.77204496  0.46156711    -0.97800
Zr1263     Zr  0.08049622  0.69836911  0.48887649     2.21500
Zr1264     Zr  0.10860114  0.80494170  0.99431381     2.11100
O1265       O  0.09816966  0.77526843  0.44560339    -2.46500
O1266       O  0.08708766  0.72907124  0.45172838    -0.78500
O1267       O  0.13898396  0.76568649  0.49038789    -0.70700
O1268       O  0.04918632  0.73376360  0.99323333    -2.31700
O1269       O  0.12705622  0.71115854  0.48738985    -2.27900
O1270       O  0.06282611  0.79057608  0.99519475    -0.72500
H1271       H  0.10701753  0.79144934  0.05782999     0.79500
H1272       H  0.03182741  0.72460320  0.99334237     0.80600
H1273       H  0.10095392  0.78437152  0.42680600     0.82800
H1274       H  0.13870507  0.69469390  0.48564784     0.80500
H1275       H  0.00261452  0.76715226  0.02835590     0.43500
H1276       H  0.99902709  0.75592551  0.47275310     0.42500
H1277       H  0.01591176  0.77803992  0.40274311     0.42100
H1278       H  0.13010956  0.74812060  0.37963087     0.40100
H1279       H  0.17976673  0.71123815  0.46144599     0.43200
H1280       H  0.18645621  0.71049257  0.03447286     0.38000
H1281       H  0.15954401  0.73406304  0.09602352     0.44100
H1282       H  0.05019981  0.76320976  0.10302621     0.40500
H1283       H  0.15923997  0.73774215  0.38689537     0.45400
H1284       H  0.19474890  0.74114155  0.04722779     0.44200
H1285       H  0.08128728  0.76533840  0.09896626     0.44300
H1286       H  0.00682082  0.78838052  0.47688398     0.44700
O1287       O  0.40482938  0.68697216  0.07056288    -0.74200
O1288       O  0.38353736  0.65152781  0.04305520    -0.53100
C1289       C  0.39221629  0.66301449  0.06853360     0.79500
O1290       O  0.33665946  0.79730710  0.06309952    -0.58800
O1291       O  0.36411280  0.81939657  0.03057540    -0.51800
C1292       C  0.34776025  0.82006894  0.05280771     0.71500
O1293       O  0.31937348  0.69584517  0.06817229    -0.73400
O1294       O  0.34575157  0.66043815  0.52786434    -0.53900
C1295       C  0.32192891  0.66860442  0.05976564     0.77500
O1296       O  0.44179670  0.77016509  0.04149518    -0.58500
O1297       O  0.41409233  0.80681603  0.03706344    -0.51600
C1298       C  0.43161425  0.79341269  0.05264480     0.74100
Zr1299     Zr  0.41901687  0.72428816  0.03766537     2.54700
O1300       O  0.43955906  0.72338232  0.08815915    -0.79100
O1301       O  0.46104485  0.70034000  0.02423489    -0.92500
Zr1302     Zr  0.33930402  0.74368954  0.05245320     2.64700
O1303       O  0.35047354  0.75167125  0.10658320    -0.97500
O1304       O  0.29199591  0.75252308  0.06261325    -0.79500
O1305       O  0.37443397  0.71010894  0.04592746    -0.82900
O1306       O  0.38406718  0.75922861  0.04416282    -2.17600
O1307       O  0.44346465  0.77234958  0.44351145    -0.66300
O1308       O  0.41306742  0.80709356  0.44760633    -0.50800
C1309       C  0.43129277  0.79351499  0.43233229     0.72500
O1310       O  0.32922674  0.67698262  0.43223402    -0.59200
O1311       O  0.34834800  0.65154193  0.46931759    -0.51100
C1312       C  0.33336545  0.65331215  0.44602774     0.74300
O1313       O  0.33177864  0.77842209  0.42530906    -0.70600
O1314       O  0.35977033  0.81091034  0.45008766    -0.49200
C1315       C  0.34062245  0.80428141  0.43145641     0.75700
O1316       O  0.43151764  0.67470413  0.44733919    -0.65900
O1317       O  0.39506831  0.64966046  0.45495401    -0.53100
C1318       C  0.41356260  0.65738187  0.43701283     0.74100
Zr1319     Zr  0.42377082  0.72561521  0.45011997     2.77500
O1320       O  0.41939572  0.72467136  0.39449131    -0.96600
O1321       O  0.47184501  0.71697806  0.44549329    -0.77500
Zr1322     Zr  0.34320766  0.72903690  0.44151771     2.70100
O1323       O  0.34962457  0.72120680  0.38658375    -0.78700
O1324       O  0.29444273  0.72933812  0.43686004    -0.97800
Zr1325     Zr  0.37790359  0.68146648  0.49697246     2.21500
Zr1326     Zr  0.38568300  0.78637664  0.48622875     2.11100
O1327       O  0.38495990  0.75380623  0.44250056    -2.46500
O1328       O  0.38186317  0.70663122  0.45460433    -0.78500
O1329       O  0.42545426  0.75929017  0.49304461    -0.70700
O1330       O  0.33767480  0.70878553  0.48954775    -2.31700
O1331       O  0.42149472  0.70200764  0.49779129    -2.27900
O1332       O  0.34211553  0.76406976  0.48332119    -0.72500
H1333       H  0.38763977  0.77147744  0.06213500     0.79500
H1334       H  0.32160493  0.69728541  0.48884017     0.80600
H1335       H  0.38594802  0.76417141  0.42413702     0.82800
H1336       H  0.43537295  0.68811839  0.50117034     0.80500
H1337       H  0.29022035  0.75089088  0.08496309     0.43500
H1338       H  0.28805511  0.71836926  0.45407082     0.42500
H1339       H  0.36308127  0.70568283  0.38455115     0.42100
H1340       H  0.43785846  0.72649949  0.38687770     0.40100
H1341       H  0.47630843  0.72028227  0.42400740     0.43200
H1342       H  0.47210142  0.70208113  0.04313745     0.38000
H1343       H  0.42538829  0.73034722  0.10246972     0.44100
H1344       H  0.35910416  0.77071626  0.10854562     0.40500
H1345       H  0.41049321  0.74247314  0.38887531     0.45400
H1346       H  0.46987608  0.71322783  0.01023023     0.44200
H1347       H  0.33301304  0.75434002  0.11696362     0.44300
H1348       H  0.28907845  0.74928351  0.44240627     0.44700
O1349       O  0.17012697  0.54862015  0.16460310    -0.74200
O1350       O  0.14379856  0.52059810  0.13209032    -0.53100
C1351       C  0.14686643  0.53940219  0.15398773     0.79500
O1352       O  0.27567898  0.54174433  0.05502981    -0.58800
O1353       O  0.30047998  0.53726081  0.09642090    -0.51800
C1354       C  0.29245911  0.55248762  0.07455911     0.71500
O1355       O  0.18722367  0.56476113  0.06977231    -0.73400
O1356       O  0.15168659  0.53567673  0.07694316    -0.53900
C1357       C  0.16209089  0.56046103  0.07297505     0.77500
O1358       O  0.26714251  0.55158883  0.17181723    -0.58500
O1359       O  0.28377626  0.50836240  0.16283780    -0.51600
C1360       C  0.28741988  0.53430871  0.17068999     0.74100
Zr1361     Zr  0.21975694  0.53803551  0.15585150     2.54700
O1362       O  0.21740347  0.58989695  0.15525649    -0.79100
O1363       O  0.21795977  0.54021261  0.21134855    -0.92500
Zr1364     Zr  0.22780905  0.53734420  0.06366987     2.64700
O1365       O  0.23512681  0.58747277  0.05426704    -0.97500
O1366       O  0.22193696  0.53641344  0.00864691    -0.79500
O1367       O  0.19978454  0.53667851  0.10690309    -0.82900
O1368       O  0.24877973  0.53826541  0.11261465    -2.17600
O1369       O  0.27826735  0.93472659  0.17693737    -0.66300
O1370       O  0.31223177  0.96275012  0.16002601    -0.50800
C1371       C  0.30360933  0.94258050  0.17571335     0.72500
O1372       O  0.21104947  0.93938684  0.04147873    -0.59200
O1373       O  0.17783893  0.94872166  0.07460110    -0.51100
C1374       C  0.19090773  0.93126246  0.05643153     0.74300
O1375       O  0.29345490  0.93351229  0.06831433    -0.70600
O1376       O  0.31944014  0.95562006  0.10571556    -0.49200
C1377       C  0.31407026  0.93471769  0.08586506     0.75700
O1378       O  0.18124761  0.94153950  0.15859361    -0.65900
O1379       O  0.15793299  0.96694405  0.12380506    -0.53100
C1380       C  0.15889511  0.95022280  0.14592131     0.74100
Zr1381     Zr  0.23221989  0.94875876  0.15454933     2.77500
O1382       O  0.22894266  0.89770298  0.14141427    -0.96600
O1383       O  0.22430052  0.94268919  0.20852517    -0.77500
Zr1384     Zr  0.25117669  0.95768124  0.06582095     2.70100
O1385       O  0.25120431  0.90671686  0.05196791    -0.78700
O1386       O  0.26796249  0.97017684  0.01631950    -0.97800
Zr1387     Zr  0.19170155  0.99430837  0.10094749     2.21500
Zr1388     Zr  0.27477437  0.49480370  0.11080582     2.11100
O1389       O  0.26522279  0.95309666  0.11687489    -2.46500
O1390       O  0.22175811  0.95884325  0.10534604    -0.78500
O1391       O  0.24571676  0.49517523  0.15453817    -0.70700
O1392       O  0.20052764  0.49558036  0.05483336    -2.31700
O1393       O  0.20619350  0.99091815  0.15332318    -2.27900
O1394       O  0.25461846  0.49535171  0.06167936    -0.72500
H1395       H  0.25889362  0.55569163  0.11589781     0.79500
H1396       H  0.18986630  0.49568984  0.03630692     0.80600
H1397       H  0.27500526  0.93568919  0.11900016     0.82800
H1398       H  0.19165639  0.98970611  0.16753250     0.80500
H1399       H  0.24026930  0.53912307  0.00076516     0.43500
H1400       H  0.28702292  0.97525820  0.02011600     0.42500
H1401       H  0.25685003  0.90530939  0.03036503     0.42100
H1402       H  0.24577631  0.88965136  0.14945524     0.40100
H1403       H  0.21233328  0.92584709  0.20880609     0.43200
H1404       H  0.22428933  0.55971549  0.21758886     0.38000
H1405       H  0.23117504  0.59509115  0.14035786     0.44100
H1406       H  0.22194776  0.59216146  0.03826038     0.40500
H1407       H  0.21481227  0.89087814  0.15501087     0.45400
H1408       H  0.23284977  0.52759100  0.21715255     0.44200
H1409       H  0.22916376  0.59834028  0.07304944     0.44300
H1410       H  0.26872240  0.95162606  0.00444607     0.44700
O1411       O  0.17458919  0.55735522  0.40428571    -0.74200
O1412       O  0.13953120  0.52838998  0.39174521    -0.53100
C1413       C  0.14978892  0.55347353  0.39765314     0.79500
O1414       O  0.27220968  0.53553596  0.32596413    -0.58800
O1415       O  0.29658440  0.51239668  0.36173469    -0.51800
C1416       C  0.29487679  0.52865618  0.33936852     0.71500
O1417       O  0.17401275  0.54271394  0.31352405    -0.73400
O1418       O  0.14221288  0.51440624  0.33397269    -0.53900
C1419       C  0.14909488  0.53426505  0.31689374     0.77500
O1420       O  0.25154724  0.54998585  0.43646622    -0.58500
O1421       O  0.28632606  0.52220312  0.41898654    -0.51600
C1422       C  0.27635810  0.54591225  0.43046870     0.74100
Zr1423     Zr  0.20950076  0.52743258  0.42300214     2.54700
O1424       O  0.21591935  0.57246624  0.45288988    -0.79100
O1425       O  0.18310702  0.52526802  0.46939600    -0.92500
Zr1426     Zr  0.22123074  0.52775843  0.33111003     2.64700
O1427       O  0.22498736  0.57964957  0.33303059    -0.97500
O1428       O  0.22678321  0.52357456  0.27599500    -0.79500
O1429       O  0.19149940  0.52809794  0.37310532    -0.82900
O1430       O  0.23958904  0.52656805  0.38108234    -2.17600
O1431       O  0.29148201  0.93088276  0.43243590    -0.66300
O1432       O  0.31598880  0.93580832  0.39076877    -0.50800
C1433       C  0.30836961  0.92064621  0.41294355     0.72500
O1434       O  0.18324328  0.93089553  0.32755930    -0.59200
O1435       O  0.16076907  0.95931738  0.36252996    -0.51100
C1436       C  0.16124433  0.94048952  0.34059711     0.74300
O1437       O  0.27878303  0.92251547  0.31528371    -0.70600
O1438       O  0.29959825  0.96390755  0.32256515    -0.49200
C1439       C  0.30062363  0.93744968  0.31604509     0.75700
O1440       O  0.20412997  0.91305162  0.40888662    -0.65900
O1441       O  0.17081550  0.94552243  0.41498642    -0.53100
C1442       C  0.17945646  0.91951530  0.41253896     0.74100
Zr1443     Zr  0.24440904  0.93894653  0.42188205     2.77500
O1444       O  0.25151361  0.88797606  0.42708362    -0.96600
O1445       O  0.22950788  0.93745760  0.47433887    -0.77500
Zr1446     Zr  0.23326343  0.94064874  0.33178176     2.70100
O1447       O  0.22776941  0.88895210  0.32692670    -0.78700
O1448       O  0.22848823  0.94541496  0.27695937    -0.97800
Zr1449     Zr  0.19265324  0.98588210  0.39116475     2.21500
Zr1450     Zr  0.29274539  0.97973257  0.37428615     2.11100
O1451       O  0.26460366  0.93759699  0.37303779    -2.46500
O1452       O  0.21941957  0.94822117  0.38068618    -0.78500
O1453       O  0.27440138  0.97855444  0.42399580    -0.70700
O1454       O  0.20962592  0.98447835  0.33961079    -2.31700
O1455       O  0.22035412  0.98232691  0.43516351    -2.27900
O1456       O  0.26153995  0.98174702  0.33167729    -0.72500
H1457       H  0.25090171  0.54321883  0.38183294     0.79500
H1458       H  0.19569091  0.98491708  0.32421614     0.80600
H1459       H  0.27382440  0.91960838  0.36980256     0.82800
H1460       H  0.21025150  0.98288077  0.45392665     0.80500
H1461       H  0.24298228  0.51155424  0.27290476     0.43500
H1462       H  0.24670365  0.95033166  0.27007381     0.42500
H1463       H  0.21385601  0.88556756  0.31086473     0.42100
H1464       H  0.23610319  0.88129427  0.43890587     0.40100
H1465       H  0.23817878  0.95415262  0.48517475     0.43200
H1466       H  0.16630586  0.53549436  0.46472300     0.38000
H1467       H  0.20516007  0.58679617  0.44240049     0.44100
H1468       H  0.20963779  0.58615166  0.32072556     0.40500
H1469       H  0.24896249  0.87910088  0.40619283     0.45400
H1470       H  0.19234804  0.53826170  0.48450657     0.44200
H1471       H  0.22047111  0.58574042  0.35439732     0.44300
H1472       H  0.22554959  0.92558272  0.26860534     0.44700
O1473       O  0.01697680  0.56593860  0.17865952    -0.74200
O1474       O  0.04164456  0.60071638  0.20428755    -0.53100
C1475       C  0.03961101  0.57874302  0.18590590     0.79500
O1476       O  0.40537752  0.65888891  0.19703806    -0.58800
O1477       O  0.38303644  0.61939899  0.20728364    -0.51800
C1478       C  0.38758352  0.63993297  0.19001759     0.71500
O1479       O  0.99025160  0.66540500  0.17020228    -0.73400
O1480       O  0.02811661  0.65136137  0.19448041    -0.53900
C1481       C  0.01549662  0.66071407  0.17121937     0.77500
O1482       O  0.41966785  0.55111769  0.18610716    -0.58500
O1483       O  0.40367930  0.55892272  0.23285433    -0.51600
C1484       C  0.39968479  0.55229540  0.20484413     0.74100
Zr1485     Zr  0.46706359  0.56624083  0.19843789     2.54700
O1486       O  0.47068865  0.56152788  0.14296522    -0.79100
O1487       O  0.46696474  0.51464405  0.20264539    -0.92500
Zr1488     Zr  0.45369126  0.65131701  0.19673304     2.64700
O1489       O  0.44039782  0.65199338  0.14305328    -0.97500
O1490       O  0.45462952  0.70332629  0.19779486    -0.79500
O1491       O  0.97989822  0.61889939  0.20052929    -0.82900
O1492       O  0.43546040  0.60500911  0.19908042    -2.17600
O1493       O  0.42628462  0.55716112  0.30660130    -0.66300
O1494       O  0.39168547  0.58072895  0.28415684    -0.50800
C1495       C  0.40063398  0.56235001  0.30195606     0.72500
O1496       O  0.99996722  0.65678078  0.31228302    -0.59200
O1497       O  0.03382584  0.65338088  0.27799201    -0.51100
C1498       C  0.02489409  0.65610880  0.30537297     0.74300
O1499       O  0.41516991  0.66987558  0.29042710    -0.70600
O1500       O  0.38878830  0.63229567  0.29016370    -0.49200
C1501       C  0.39965905  0.65379981  0.30484965     0.75700
O1502       O  0.02235279  0.56707494  0.29031891    -0.65900
O1503       O  0.04506561  0.60022558  0.26421380    -0.53100
C1504       C  0.04446970  0.57926435  0.28167293     0.74100
Zr1505     Zr  0.47268588  0.57495969  0.28951303     2.77500
O1506       O  0.47860599  0.58113567  0.34478700    -0.96600
O1507       O  0.47733065  0.52336799  0.29055303    -0.77500
Zr1508     Zr  0.46296708  0.66039098  0.28618007     2.70100
O1509       O  0.47050363  0.64816643  0.33892133    -0.78700
O1510       O  0.46084691  0.71228660  0.29451190    -0.97800
Zr1511     Zr  0.01119491  0.62531494  0.23752290     2.21500
Zr1512     Zr  0.41354445  0.60727168  0.24824861     2.11100
O1513       O  0.44331686  0.61462889  0.29102539    -2.46500
O1514       O  0.98827455  0.61894061  0.28399086    -0.78500
O1515       O  0.44421476  0.56752582  0.24639261    -0.70700
O1516       O  0.98102860  0.66487695  0.24256375    -2.31700
O1517       O  0.99516229  0.57682636  0.23629415    -2.27900
O1518       O  0.43216101  0.65381281  0.24455066    -0.72500
H1519       H  0.42371770  0.60175279  0.18166985     0.79500
H1520       H  0.99020600  0.68305231  0.24296257     0.80600
H1521       H  0.43404641  0.61407523  0.31024039     0.82800
H1522       H  0.00950650  0.56301063  0.23464237     0.80500
H1523       H  0.43557656  0.70904226  0.19609477     0.43500
H1524       H  0.47374451  0.71971290  0.27979620     0.42500
H1525       H  0.48337488  0.66262284  0.34745288     0.42100
H1526       H  0.46431391  0.56933308  0.35330927     0.40100
H1527       H  0.48853184  0.51800517  0.27255309     0.43200
H1528       H  0.96563471  0.51594234  0.21305633     0.38000
H1529       H  0.96630886  0.59252671  0.13176739     0.44100
H1530       H  0.44623405  0.67090084  0.13653684     0.40500
H1531       H  0.49543602  0.57085697  0.34916434     0.45400
H1532       H  0.48589332  0.50968031  0.20685853     0.44200
H1533       H  0.45237901  0.63809761  0.13210306     0.44300
H1534       H  0.44310269  0.71774945  0.28635907     0.44700
O1535       O  0.03529724  0.81453097  0.18249854    -0.74200
O1536       O  0.06209308  0.85117956  0.19389896    -0.53100
C1537       C  0.05213207  0.83297555  0.17414511     0.79500
O1538       O  0.43002462  0.91112813  0.19983491    -0.58800
O1539       O  0.40744573  0.87445794  0.22044327    -0.51800
C1540       C  0.40796480  0.89756834  0.20641153     0.71500
O1541       O  0.02849670  0.92665294  0.18100212    -0.73400
O1542       O  0.05971570  0.90309622  0.20870126    -0.53900
C1543       C  0.05321319  0.92134587  0.18948055     0.77500
O1544       O  0.45817565  0.79523071  0.19891115    -0.58500
O1545       O  0.42198483  0.82159110  0.20231546    -0.51600
C1546       C  0.43749373  0.80526447  0.18605355     0.74100
Zr1547     Zr  0.49972065  0.82166503  0.19999575     2.54700
O1548       O  0.49192966  0.82962631  0.14610151    -0.79100
O1549       O  0.51124820  0.77194490  0.18690067    -0.92500
Zr1550     Zr  0.48096325  0.90547614  0.20362862     2.64700
O1551       O  0.47701625  0.90159853  0.14809364    -0.97500
O1552       O  0.47211511  0.95655270  0.20366779    -0.79500
O1553       O  0.00913720  0.86902523  0.19120451    -0.82900
O1554       O  0.46573836  0.85751575  0.20055644    -2.17600
O1555       O  0.45995675  0.79413051  0.28846878    -0.66300
O1556       O  0.42307652  0.81962624  0.28565808    -0.50800
C1557       C  0.43848348  0.80357722  0.30079211     0.72500
O1558       O  0.03161758  0.91605677  0.30407380    -0.59200
O1559       O  0.05764040  0.90881475  0.26251829    -0.51100
C1560       C  0.05498590  0.91488837  0.29076452     0.74300
O1561       O  0.43097680  0.91094385  0.30168131    -0.70600
O1562       O  0.41020127  0.87148365  0.28004657    -0.49200
C1563       C  0.40965865  0.89552034  0.29491860     0.75700
O1564       O  0.02629636  0.83756646  0.31092600    -0.65900
O1565       O  0.06016063  0.85305771  0.28199159    -0.53100
C1566       C  0.05007765  0.84696865  0.30800600     0.74100
Zr1567     Zr  0.50033658  0.82237438  0.29030720     2.77500
O1568       O  0.49252148  0.82012332  0.34508758    -0.96600
O1569       O  0.52238630  0.77614407  0.29257545    -0.77500
Zr1570     Zr  0.48143021  0.90661298  0.29527601     2.70100
O1571       O  0.47366714  0.90801389  0.35022884    -0.78700
O1572       O  0.47884835  0.95852932  0.29816764    -0.97800
Zr1573     Zr  0.03565836  0.87047555  0.23681914     2.21500
Zr1574     Zr  0.44120929  0.84946169  0.24634105     2.11100
O1575       O  0.46639967  0.85817253  0.29294474    -2.46500
O1576       O  0.00669678  0.86889044  0.27567390    -0.78500
O1577       O  0.47478282  0.81317656  0.24463424    -0.70700
O1578       O  0.00808636  0.91288147  0.23868294    -2.31700
O1579       O  0.01601141  0.82411208  0.23359792    -2.27900
O1580       O  0.45622219  0.89846550  0.24898644    -0.72500
H1581       H  0.45468403  0.85585832  0.18237447     0.79500
H1582       H  0.01841649  0.93031989  0.23933005     0.80600
H1583       H  0.45552134  0.85607515  0.31082864     0.82800
H1584       H  0.02948867  0.80933590  0.23421530     0.80500
H1585       H  0.97215645  0.96430251  0.16848030     0.43500
H1586       H  0.49760452  0.96491401  0.29572450     0.42500
H1587       H  0.48783513  0.92076950  0.35919684     0.42100
H1588       H  0.50921670  0.81286991  0.35428571     0.40100
H1589       H  0.52306168  0.77247017  0.31463076     0.43200
H1590       H  0.49973631  0.76079502  0.20020132     0.38000
H1591       H  0.98780817  0.85111723  0.13198020     0.44100
H1592       H  0.45749846  0.89982285  0.14403469     0.40500
H1593       H  0.49119682  0.84027610  0.35299603     0.45400
H1594       H  0.52954483  0.76931225  0.19523281     0.44200
H1595       H  0.48169150  0.92086847  0.14161673     0.44300
H1596       H  0.46974180  0.96323768  0.27890136     0.44700
C1597       C  0.33303942  0.90195930  0.29151648     0.24700
C1598       C  0.32808540  0.92510376  0.31207989    -0.23400
C1599       C  0.35022606  0.93776930  0.32847685     0.19600
C1600       C  0.37653960  0.92786852  0.32389635     0.24600
C1601       C  0.38169570  0.90539208  0.30238788    -0.23400
C1602       C  0.35930068  0.89219620  0.28665364     0.19500
F1603       F  0.36253686  0.87008149  0.26561575    -0.13300
F1604       F  0.31262581  0.88955316  0.27492350    -0.15700
F1605       F  0.39683474  0.94013819  0.34081677    -0.15700
F1606       F  0.34657780  0.95980464  0.34940306    -0.13300
C1607       C  0.10426462  0.90361662  0.29557198     0.24700
C1608       C  0.08121664  0.91856869  0.30715928    -0.23400
C1609       C  0.08463215  0.93825603  0.33185291     0.19600
C1610       C  0.11039198  0.94422945  0.34352165     0.24600
C1611       C  0.13375542  0.93090536  0.33034300    -0.23400
C1612       C  0.13001561  0.90965996  0.30709136     0.19500
F1613       F  0.15126143  0.89496657  0.29498914    -0.13300
F1614       F  0.10225908  0.88349353  0.27215717    -0.15700
F1615       F  0.11213461  0.96369759  0.36754938    -0.15700
F1616       F  0.06329197  0.95301913  0.34359500    -0.13300
C1617       C  0.34008461  0.55149505  0.35093205     0.24700
C1618       C  0.32202783  0.53840373  0.32920545    -0.23400
C1619       C  0.33289511  0.52765954  0.30133842     0.19600
C1620       C  0.36033200  0.53141594  0.29474282     0.24600
C1621       C  0.37791104  0.54650265  0.31547005    -0.23400
C1622       C  0.36740213  0.55590361  0.34399718     0.19500
F1623       F  0.38334193  0.57046051  0.36474104    -0.13300
F1624       F  0.33117148  0.56015717  0.37911947    -0.15700
F1625       F  0.36959806  0.52155891  0.26705259    -0.15700
F1626       F  0.31709800  0.51278471  0.28069375    -0.13300
C1627       C  0.09361044  0.58704415  0.29707785     0.24700
C1628       C  0.07170444  0.56820910  0.29046114    -0.23400
C1629       C  0.07723379  0.53889012  0.28774415     0.19600
C1630       C  0.10326799  0.52858497  0.29294784     0.24600
C1631       C  0.12493592  0.54705114  0.30164338    -0.23400
C1632       C  0.11977523  0.57659070  0.30285867     0.19500
F1633       F  0.13964467  0.59532187  0.31096938    -0.13300
F1634       F  0.08956268  0.61572591  0.29876382    -0.15700
F1635       F  0.10711350  0.49995396  0.29062557    -0.15700
F1636       F  0.05749309  0.52004316  0.27928470    -0.13300
C1637       C  0.37345497  0.93707997  0.20815917     0.24700
C1638       C  0.38051719  0.90889676  0.19927204    -0.23400
C1639       C  0.35952870  0.89002679  0.18920997     0.19600
C1640       C  0.33294965  0.89979931  0.18539341     0.24600
C1641       C  0.32639592  0.92861121  0.19191378    -0.23400
C1642       C  0.34682375  0.94661047  0.20505381     0.19500
F1643       F  0.34112202  0.97420516  0.21362425    -0.13300
F1644       F  0.39222499  0.95531282  0.22060865    -0.15700
F1645       F  0.31394437  0.88126670  0.17420664    -0.15700
F1646       F  0.36477800  0.86198493  0.18251777    -0.13300
C1647       C  0.09816635  0.94437281  0.19782455     0.24700
C1648       C  0.07742796  0.93547195  0.17705540    -0.23400
C1649       C  0.08399481  0.93151464  0.14599923     0.19600
C1650       C  0.11060710  0.93526605  0.13618118     0.24600
C1651       C  0.13168510  0.94223948  0.15727222    -0.23400
C1652       C  0.12486808  0.94738347  0.18815643     0.19500
F1653       F  0.14393469  0.95609411  0.20894653    -0.13300
F1654       F  0.09264467  0.94905703  0.22803389    -0.15700
F1655       F  0.11587361  0.93147989  0.10585283    -0.15700
F1656       F  0.06503942  0.92215829  0.12538571    -0.13300
C1657       C  0.35019571  0.56328404  0.21148128     0.24700
C1658       C  0.37103091  0.54880527  0.19480352    -0.23400
C1659       C  0.36388402  0.53155288  0.16898838     0.19600
C1660       C  0.33685826  0.52845844  0.16031814     0.24600
C1661       C  0.31597480  0.54257098  0.17722239    -0.23400
C1662       C  0.32316250  0.56057960  0.20243872     0.19500
F1663       F  0.30395736  0.57438332  0.21937596    -0.13300
F1664       F  0.35574835  0.58003181  0.23698569    -0.15700
F1665       F  0.33123091  0.51075133  0.13560292    -0.15700
F1666       F  0.38288904  0.51644892  0.15297665    -0.13300
C1667       C  0.08657879  0.58760826  0.16810610     0.24700
C1668       C  0.06617345  0.56782783  0.17462539    -0.23400
C1669       C  0.07348633  0.53908228  0.17690983     0.19600
C1670       C  0.10031858  0.53041051  0.17259771     0.24600
C1671       C  0.12071252  0.55027041  0.16625934    -0.23400
C1672       C  0.11338642  0.57893095  0.16388753     0.19500
F1673       F  0.13191391  0.59833672  0.15596748    -0.13300
F1674       F  0.08047393  0.61563702  0.16579311    -0.15700
F1675       F  0.10641867  0.50228862  0.17419445    -0.15700
F1676       F  0.05492172  0.51954699  0.18449565    -0.13300
C1677       C  0.35564761  0.87376898  0.05444268     0.24700
C1678       C  0.34215388  0.84984479  0.06616584    -0.23400
C1679       C  0.32308766  0.85547084  0.08919941     0.19600
C1680       C  0.31645803  0.88382378  0.09848187     0.24600
C1681       C  0.32892116  0.90735528  0.08541895    -0.23400
C1682       C  0.34888280  0.90190417  0.06379572     0.19500
F1683       F  0.36022092  0.92388166  0.04960837    -0.13300
F1684       F  0.37468705  0.87039735  0.03251655    -0.15700
F1685       F  0.29573515  0.88826158  0.11805744    -0.15700
F1686       F  0.30958449  0.83375095  0.10143696    -0.13300
C1687       C  0.31172090  0.63083524  0.09726298     0.24700
C1688       C  0.30506650  0.64469847  0.07046476    -0.23400
C1689       C  0.29266672  0.62787855  0.04661727     0.19600
C1690       C  0.29145347  0.59811309  0.04709889     0.24600
C1691       C  0.29913302  0.58380722  0.07325493    -0.23400
C1692       C  0.30874351  0.60080626  0.09879733     0.19500
F1693       F  0.31540524  0.58853387  0.12516636    -0.13300
F1694       F  0.33239557  0.63845387  0.59561170    -0.15700
F1695       F  0.28265587  0.58326944  0.02140857    -0.15700
F1696       F  0.28440689  0.64013817  0.02082585    -0.13300
C1697       C  0.32945925  0.87329017  0.39174975     0.24700
C1698       C  0.31675559  0.88979368  0.41561328    -0.23400
C1699       C  0.30865050  0.87527797  0.44149316     0.19600
C1700       C  0.31259345  0.84592836  0.44337926     0.24600
C1701       C  0.32663486  0.82992310  0.42076126    -0.23400
C1702       C  0.33487748  0.84381744  0.39464111     0.19500
F1703       F  0.34887124  0.82911009  0.37242686    -0.13300
F1704       F  0.33702327  0.88557690  0.36587416    -0.15700
F1705       F  0.30492352  0.83347104  0.46922611    -0.15700
F1706       F  0.29729282  0.88953118  0.46588629    -0.13300
C1707       C  0.29622514  0.62305790  0.42087103     0.24700
C1708       C  0.32060606  0.62515473  0.43685295    -0.23400
C1709       C  0.33163772  0.59964891  0.44840035     0.19600
C1710       C  0.31762471  0.57380288  0.44630905     0.24600
C1711       C  0.29260807  0.57234469  0.43208365    -0.23400
C1712       C  0.28239298  0.59694460  0.41849420     0.19500
F1713       F  0.25869806  0.59574587  0.40296338    -0.13300
F1714       F  0.28519466  0.64636516  0.40866274    -0.15700
F1715       F  0.32806390  0.55056138  0.45927863    -0.15700
F1716       F  0.35600044  0.59962254  0.46254769    -0.13300
C1717       C  0.45097314  0.78090344  0.34950615     0.24700
C1718       C  0.43471048  0.80032332  0.33430934    -0.23400
C1719       C  0.41902806  0.81977823  0.35235840     0.19600
C1720       C  0.41918051  0.81916609  0.38449657     0.24600
C1721       C  0.43552588  0.79954870  0.39948380    -0.23400
C1722       C  0.45249098  0.78171960  0.38139797     0.19500
F1723       F  0.47038773  0.76430092  0.39447846    -0.13300
F1724       F  0.46697593  0.76208144  0.33356113    -0.15700
F1725       F  0.40333204  0.83788906  0.40082960    -0.15700
F1726       F  0.40397308  0.83989199  0.33910646    -0.13300
C1727       C  0.45336498  0.78379129  0.10306733     0.24700
C1728       C  0.43634044  0.80111822  0.08612694    -0.23400
C1729       C  0.42060185  0.82159275  0.10269495     0.19600
C1730       C  0.42066340  0.82305240  0.13504593     0.24600
C1731       C  0.43526861  0.80304817  0.15168090    -0.23400
C1732       C  0.45147415  0.78333241  0.13489629     0.19500
F1733       F  0.46599873  0.76352758  0.14927237    -0.13300
F1734       F  0.47166027  0.76643152  0.08878789    -0.15700
F1735       F  0.40699198  0.84453890  0.14991123    -0.15700
F1736       F  0.40525393  0.84033202  0.08773815    -0.13300
C1737       C  0.42125984  0.67117027  0.35409847     0.24700
C1738       C  0.40056471  0.65545540  0.33915737    -0.23400
C1739       C  0.38454283  0.63813562  0.35704785     0.19600
C1740       C  0.38930832  0.63704156  0.38886125     0.24600
C1741       C  0.41110756  0.65189109  0.40305644    -0.23400
C1742       C  0.42833629  0.66658049  0.38427436     0.19500
F1743       F  0.45177663  0.67787818  0.39537221    -0.13300
F1744       F  0.43586868  0.69033466  0.33926616    -0.15700
F1745       F  0.37310675  0.62084800  0.40545980    -0.15700
F1746       F  0.36390791  0.62290728  0.34400625    -0.13300
C1747       C  0.38385573  0.62449883  0.10626439     0.24700
C1748       C  0.38265240  0.65295677  0.09799483    -0.23400
C1749       C  0.37273794  0.67384149  0.11938865     0.19600
C1750       C  0.36869156  0.66772535  0.14965202     0.24600
C1751       C  0.37517736  0.64076074  0.15942505    -0.24600
C1752       C  0.38005859  0.61835423  0.13711716     0.19500
F1753       F  0.38416154  0.59131546  0.14558147    -0.13300
F1754       F  0.39093751  0.60335644  0.08544336    -0.15700
F1755       F  0.36114612  0.68897456  0.17016330    -0.15700
F1756       F  0.36818849  0.70081646  0.11126447    -0.13300
C1757       C  0.14614284  0.86195726  0.45167150     0.24700
C1758       C  0.15292525  0.83789953  0.43193909    -0.23400
C1759       C  0.16168518  0.84293145  0.40231163     0.19600
C1760       C  0.16568847  0.87101050  0.39370711     0.24600
C1761       C  0.16181998  0.89453184  0.41479972    -0.23400
C1762       C  0.15021350  0.88985274  0.44295705     0.19500
F1763       F  0.14571339  0.91211683  0.46349301    -0.13300
F1764       F  0.13649919  0.85878007  0.48017805    -0.15700
F1765       F  0.17612488  0.87522365  0.36575301    -0.15700
F1766       F  0.16805564  0.82081444  0.38235792    -0.13300
C1767       C  0.14682020  0.60402227  0.38373323     0.24700
C1768       C  0.13425147  0.58025887  0.39613959    -0.23400
C1769       C  0.11114279  0.58477875  0.41352047     0.19600
C1770       C  0.10259205  0.61270306  0.42128115     0.24600
C1771       C  0.11795500  0.63674478  0.41315909    -0.23400
C1772       C  0.13892083  0.63199675  0.39232485     0.19500
F1773       F  0.15323549  0.65417098  0.38220810    -0.13300
F1774       F  0.16865769  0.60015319  0.36563139    -0.15700
F1775       F  0.08035491  0.61594392  0.43887510    -0.15700
F1776       F  0.09866170  0.56248982  0.42595643    -0.13300
C1777       C  0.19136679  0.85167957  0.03232656     0.24700
C1778       C  0.17626437  0.83990620  0.05557248    -0.23400
C1779       C  0.16817042  0.85800344  0.08035620     0.19600
C1780       C  0.17254274  0.88753421  0.08032394     0.24600
C1781       C  0.18488231  0.89991627  0.05534860    -0.23400
C1782       C  0.19512058  0.88129106  0.03178418     0.19500
F1783       F  0.20775665  0.89167624  0.00738774    -0.13300
F1784       F  0.19921767  0.83477831  0.00779390    -0.15700
F1785       F  0.16443317  0.90389588  0.10484693    -0.15700
F1786       F  0.15356816  0.84740858  0.10320334    -0.13300
C1787       C  0.14719925  0.63886716  0.08075865     0.24700
C1788       C  0.12810823  0.64137454  0.05739690    -0.23400
C1789       C  0.11487472  0.61599730  0.04574862     0.19600
C1790       C  0.12408076  0.58899137  0.05306205     0.24600
C1791       C  0.14577398  0.58674965  0.07304197    -0.23400
C1792       C  0.15583419  0.61179098  0.08860915     0.19500
F1793       F  0.17548866  0.61001011  0.11006778    -0.13300
F1794       F  0.15845863  0.66243500  0.09499988    -0.15700
F1795       F  0.11340641  0.56524437  0.03850107    -0.15700
F1796       F  0.09376960  0.61695151  0.02603015    -0.13300
C1797       C  0.04952248  0.86629990  0.36183457     0.24700
C1798       C  0.06429985  0.85255374  0.33777208    -0.23400
C1799       C  0.08771151  0.83787966  0.34518108     0.19600
C1800       C  0.09373048  0.83333269  0.37602999     0.24600
C1801       C  0.07711759  0.84443032  0.39998997    -0.23400
C1802       C  0.05587198  0.86229242  0.39252749     0.19500
F1803       F  0.03891215  0.87246436  0.41467777    -0.13300
F1804       F  0.02657134  0.88048767  0.35555151    -0.15700
F1805       F  0.11306885  0.81409190  0.38196679    -0.15700
F1806       F  0.10250196  0.82451778  0.32274255    -0.13300
C1807       C  0.07778664  0.85197153  0.12930986     0.24700
C1808       C  0.05672705  0.83570238  0.14086980    -0.23400
C1809       C  0.03780262  0.82370713  0.12003414     0.19600
C1810       C  0.03905422  0.82825398  0.08910080     0.24600
C1811       C  0.06215640  0.84018007  0.07693522    -0.23400
C1812       C  0.08092929  0.85350519  0.09741285     0.19500
F1813       F  0.10257115  0.86719014  0.08666185    -0.13300
F1814       F  0.09614610  0.86480410  0.14856698    -0.15700
F1815       F  0.01905037  0.81736997  0.07071983    -0.15700
F1816       F  0.01930299  0.80493913  0.12884158    -0.13300
C1817       C  0.05985137  0.67942985  0.33761588     0.24700
C1818       C  0.04289670  0.65623086  0.33165363    -0.23400
C1819       C  0.03570597  0.63881025  0.35558796     0.19600
C1820       C  0.03976538  0.64849495  0.38595999     0.24600
C1821       C  0.05252552  0.67470669  0.39196518    -0.23400
C1822       C  0.06522227  0.68829061  0.36781601     0.19500
F1823       F  0.08024279  0.71224087  0.37339450    -0.13300
F1824       F  0.06772772  0.69592257  0.31477905    -0.15700
F1825       F  0.02852191  0.63424254  0.40880082    -0.15700
F1826       F  0.02102110  0.61479661  0.34947816    -0.13300
C1827       C  0.05533100  0.67491609  0.13981985     0.24700
C1828       C  0.02933410  0.66378637  0.14182908    -0.23400
C1829       C  0.01518679  0.65571731  0.11452096     0.19600
C1830       C  0.02561877  0.66108493  0.08602722     0.24600
C1831       C  0.05012557  0.67501864  0.08419540    -0.23400
C1832       C  0.06565000  0.68058727  0.11105073     0.19500
F1833       F  0.08981109  0.69383279  0.10948721    -0.13300
F1834       F  0.06973475  0.68239687  0.16548577    -0.15700
F1835       F  0.01042803  0.65554174  0.06050743    -0.15700
F1836       F  0.99045755  0.64369479  0.11536821    -0.13300
O1837       O  0.13629722  0.68557958  0.54333545    -0.74200
O1838       O  0.10286252  0.66311610  0.51570352    -0.53100
C1839       C  0.12316272  0.66274001  0.53350868     0.79500
O1840       O  0.05365458  0.81163966  0.53281274    -0.58800
O1841       O  0.08992974  0.83769557  0.53198489    -0.51800
C1842       C  0.06963593  0.82943867  0.54669457     0.71500
O1843       O  0.03191131  0.71658834  0.54594227    -0.73400
O1844       O  0.05859953  0.67962769  0.53364639    -0.53900
C1845       C  0.04231155  0.69272959  0.55216795     0.77500
O1846       O  0.15937843  0.78412270  0.54644920    -0.58500
O1847       O  0.13713521  0.82221925  0.52746704    -0.51600
C1848       C  0.15623826  0.81119265  0.54229823     0.74100
Zr1849     Zr  0.13383239  0.73854068  0.53449358     2.54700
O1850       O  0.13078915  0.73854714  0.58999581    -0.79100
O1851       O  0.18140432  0.72679927  0.53665950    -0.92500
Zr1852     Zr  0.05587383  0.76004906  0.53755204     2.64700
O1853       O  0.06365880  0.76011672  0.59258804    -0.97500
O1854       O  0.00839018  0.76612659  0.54828581    -0.79500
O1855       O  0.08943152  0.72763843  0.52995596    -0.82900
O1856       O  0.10113844  0.77575510  0.53787781    -2.17600
O1857       O  0.15279131  0.78739895  0.92909869    -0.66300
O1858       O  0.15225554  0.81124722  0.97425297    -0.50800
C1859       C  0.15533469  0.81106123  0.94562940     0.72500
O1860       O  0.05456776  0.71851363  0.91885519    -0.59200
O1861       O  0.06169407  0.67914346  0.94531436    -0.51100
C1862       C  0.05764204  0.69157794  0.92020683     0.74300
O1863       O  0.06417430  0.80755348  0.92731265    -0.70600
O1864       O  0.09550955  0.83511232  0.95336696    -0.49200
C1865       C  0.07994706  0.82930852  0.93030362     0.75700
O1866       O  0.13506329  0.68740542  0.92788576    -0.65900
O1867       O  0.10539494  0.66488811  0.95748487    -0.53100
C1868       C  0.12275773  0.66453095  0.93626182     0.74100
Zr1869     Zr  0.13578135  0.74003659  0.94552940     2.77500
O1870       O  0.13566946  0.73591716  0.88979194    -0.96600
O1871       O  0.18387642  0.73190581  0.94966336    -0.77500
Zr1872     Zr  0.05690619  0.76179558  0.95018116     2.70100
O1873       O  0.03218812  0.76887232  0.90286913    -0.78700
O1874       O  0.01071305  0.76805484  0.96705141    -0.97800
Zr1875     Zr  0.08509511  0.70027442  0.99016579     2.21500
Zr1876     Zr  0.10524416  0.80275462  0.49272373     2.11100
O1877       O  0.10229946  0.77626519  0.94791298    -2.46500
O1878       O  0.09154437  0.73021780  0.95278351    -0.78500
O1879       O  0.14278594  0.76872189  0.99175434    -0.70700
O1880       O  0.04525731  0.73251307  0.49145129    -2.31700
O1881       O  0.13140655  0.71439875  0.99063114    -2.27900
O1882       O  0.05908715  0.78922167  0.49480619    -0.72500
H1883       H  0.10475646  0.78763485  0.55617103     0.79500
H1884       H  0.02781896  0.72352433  0.49086804     0.80600
H1885       H  0.10552128  0.78534492  0.92924459     0.82800
H1886       H  0.14333162  0.69812787  0.98999286     0.80500
H1887       H  0.00074090  0.77432675  0.52978936     0.43500
H1888       H  0.00408626  0.78486229  0.95651460     0.42500
H1889       H  0.01668578  0.75567426  0.90294307     0.42100
H1890       H  0.13047388  0.75508817  0.88338970     0.40100
H1891       H  0.18863944  0.72169588  0.93003526     0.43200
H1892       H  0.18728229  0.73362216  0.55746478     0.38000
H1893       H  0.14813258  0.73055276  0.59663339     0.44100
H1894       H  0.06359302  0.73971279  0.59729980     0.40500
H1895       H  0.11998033  0.72372079  0.88425361     0.45400
H1896       H  0.19009613  0.74000025  0.52287323     0.44200
H1897       H  0.08251431  0.76616175  0.59590016     0.44300
H1898       H  0.00092302  0.75165323  0.95708890     0.44700
O1899       O  0.40520071  0.69837225  0.57151599    -0.74200
O1900       O  0.39243380  0.65881469  0.54341426    -0.53100
C1901       C  0.39668157  0.67257221  0.56927519     0.79500
O1902       O  0.33023477  0.79793772  0.54120799    -0.58800
O1903       O  0.35920172  0.82110953  0.51125143    -0.51800
C1904       C  0.34060251  0.82125167  0.53087173     0.71500
O1905       O  0.31725660  0.69590205  0.54512074    -0.73400
O1906       O  0.33791278  0.65882399  0.03927057    -0.53900
C1907       C  0.32459985  0.66920877  0.54146764     0.77500
O1908       O  0.42371914  0.78439409  0.56002811    -0.58500
O1909       O  0.40417558  0.81640716  0.52942008    -0.51600
C1910       C  0.41468115  0.80925079  0.55495028     0.74100
Zr1911     Zr  0.41743035  0.73625750  0.53927321     2.54700
O1912       O  0.43269284  0.74208380  0.59231974    -0.79100
O1913       O  0.46516629  0.72507131  0.53498074    -0.92500
Zr1914     Zr  0.33617370  0.74362164  0.53122038     2.64700
O1915       O  0.32919887  0.74907114  0.58632582    -0.97500
O1916       O  0.28937818  0.75234340  0.51846085    -0.79500
O1917       O  0.37539130  0.71770325  0.53275063    -0.82900
O1918       O  0.37877237  0.76490061  0.53315399    -2.17600
O1919       O  0.41303571  0.76248945  0.92256802    -0.66300
O1920       O  0.40566057  0.80283034  0.95265611    -0.50800
C1921       C  0.41084731  0.78965345  0.92664727     0.72500
O1922       O  0.31452014  0.68603717  0.94433811    -0.59200
O1923       O  0.32154478  0.66451771  0.98775896    -0.51100
C1924       C  0.31437863  0.66337599  0.96020822     0.74300
O1925       O  0.32038192  0.78917450  0.95334837    -0.70600
O1926       O  0.35641035  0.81584280  0.97074066    -0.49200
C1927       C  0.33356270  0.81313963  0.95745313     0.75700
O1928       O  0.39003949  0.67517456  0.92562801    -0.65900
O1929       O  0.37495546  0.64540810  0.96076674    -0.53100
C1930       C  0.38090273  0.65114549  0.93328292     0.74100
Zr1931     Zr  0.40534591  0.71981887  0.94944442     2.77500
O1932       O  0.41574573  0.71445305  0.89494685    -0.96600
O1933       O  0.45264906  0.70703387  0.95079459    -0.77500
Zr1934     Zr  0.32721802  0.73682190  0.96190856     2.70100
O1935       O  0.31788358  0.74130158  0.90766033    -0.78700
O1936       O  0.27943526  0.73820220  0.97300066    -0.97800
Zr1937     Zr  0.36443893  0.67970847  0.00309768     2.21500
Zr1938     Zr  0.38395603  0.78397961  0.99767764     2.11100
O1939       O  0.37062973  0.75467429  0.95381837    -2.46500
O1940       O  0.36320820  0.70665263  0.96190996    -0.78500
O1941       O  0.41949279  0.75006799  0.99187586    -0.70700
O1942       O  0.32824283  0.71403433  0.00879220    -2.31700
O1943       O  0.40948289  0.69318406  0.99419702    -2.27900
O1944       O  0.33888288  0.76731619  0.00550313    -0.72500
H1945       H  0.37638703  0.77816687  0.55025738     0.79500
H1946       H  0.31055174  0.70666226  0.01254737     0.80600
H1947       H  0.36789919  0.76519748  0.93576017     0.82800
H1948       H  0.42132938  0.67691069  0.99177709     0.80500
H1949       H  0.27909571  0.74170770  0.53339492     0.43500
H1950       H  0.27816779  0.74936028  0.99282265     0.42500
H1951       H  0.30363464  0.72707840  0.90256218     0.42100
H1952       H  0.39843347  0.71043653  0.88430014     0.40100
H1953       H  0.46220383  0.72548183  0.94983419     0.43200
H1954       H  0.46952403  0.72587598  0.51301521     0.38000
H1955       H  0.45136674  0.73489463  0.59239823     0.44100
H1956       H  0.31641985  0.76518228  0.58899280     0.40500
H1957       H  0.42621535  0.69655473  0.89210795     0.45400
H1958       H  0.46681915  0.70466070  0.53944044     0.44200
H1959       H  0.31869150  0.73214670  0.59159485     0.44300
H1960       H  0.27176342  0.75092562  0.95786967     0.44700
O1961       O  0.17435806  0.55165845  0.65449295    -0.74200
O1962       O  0.14545179  0.52042348  0.62928561    -0.53100
C1963       C  0.15046581  0.54209471  0.64707989     0.79500
O1964       O  0.25652032  0.55716344  0.54215745    -0.58800
O1965       O  0.29227357  0.53585975  0.56388840    -0.51800
C1966       C  0.28116315  0.55695980  0.55030553     0.71500
O1967       O  0.17267249  0.54044568  0.53689634    -0.73400
O1968       O  0.14914313  0.53103506  0.57869228    -0.53900
C1969       C  0.15467318  0.54682472  0.55643828     0.77500
O1970       O  0.27187271  0.53963833  0.65947409    -0.58500
O1971       O  0.29429728  0.53461803  0.61543241    -0.51600
C1972       C  0.29426806  0.53842084  0.64414060     0.74100
Zr1973     Zr  0.22260453  0.53874167  0.64243913     2.54700
O1974       O  0.22670543  0.58993303  0.63670254    -0.79100
O1975       O  0.22174223  0.55073376  0.69738733    -0.92500
Zr1976     Zr  0.21776764  0.52825970  0.54903879     2.64700
O1977       O  0.20525833  0.57418071  0.52928262    -0.97500
O1978       O  0.23091835  0.50742514  0.49921421    -0.79500
O1979       O  0.20075818  0.52672431  0.59724801    -0.82900
O1980       O  0.24342370  0.53703552  0.59436295    -2.17600
O1981       O  0.28558237  0.94561027  0.67171144    -0.66300
O1982       O  0.31664999  0.97153456  0.64649439    -0.50800
C1983       C  0.31025057  0.95436354  0.66695771     0.72500
O1984       O  0.20768901  0.93260024  0.53417889    -0.59200
O1985       O  0.17522308  0.94140663  0.56788483    -0.51100
C1986       C  0.18828528  0.92396234  0.54980072     0.74300
O1987       O  0.29565712  0.94860279  0.54735958    -0.70600
O1988       O  0.31986617  0.95543299  0.58958292    -0.49200
C1989       C  0.31345566  0.93987694  0.56561183     0.75700
O1990       O  0.18722964  0.94319834  0.66047494    -0.65900
O1991       O  0.16133550  0.96194013  0.62313450    -0.53100
C1992       C  0.16400850  0.94840016  0.64742950     0.74100
Zr1993     Zr  0.23735322  0.95252189  0.65139681     2.77500
O1994       O  0.23770152  0.90056647  0.65154297    -0.96600
O1995       O  0.23342402  0.95501691  0.70685251    -0.77500
Zr1996     Zr  0.24897291  0.94392462  0.55990285     2.70100
O1997       O  0.25292441  0.89665862  0.58005558    -0.78700
O1998       O  0.26002898  0.91152897  0.51623075    -0.97800
Zr1999     Zr  0.19122274  0.98674516  0.59255610     2.21500
Zr2000     Zr  0.27154165  0.49582149  0.59144228     2.11100
O2001       O  0.26745327  0.95051941  0.60949724    -2.46500
O2002       O  0.21829163  0.94599850  0.60134713    -0.78500
O2003       O  0.25075116  0.49819255  0.64159282    -0.70700
O2004       O  0.19177023  0.48598010  0.55020874    -2.31700
O2005       O  0.20962802  0.99286757  0.64381813    -2.27900
O2006       O  0.24606674  0.48787438  0.54601274    -0.72500
H2007       H  0.25256239  0.55514635  0.59525304     0.79500
H2008       H  0.17893165  0.48434179  0.53354616     0.80600
H2009       H  0.27964840  0.93512205  0.61296092     0.82800
H2010       H  0.19597629  0.99378959  0.65932581     0.80500
H2011       H  0.24535464  0.52002599  0.49234770     0.43500
H2012       H  0.27243610  0.92236424  0.50367706     0.42500
H2013       H  0.23936457  0.88476362  0.56871951     0.42100
H2014       H  0.22544407  0.89419082  0.63460427     0.40100
H2015       H  0.22828370  0.97507969  0.71212675     0.43200
H2016       H  0.20799615  0.56589585  0.70008421     0.38000
H2017       H  0.24597404  0.59404828  0.64046500     0.44100
H2018       H  0.20961574  0.58855603  0.54602362     0.40500
H2019       H  0.25580428  0.89492170  0.64427331     0.45400
H2020       H  0.23890741  0.56076395  0.70196647     0.44200
H2021       H  0.21825009  0.57781028  0.51297877     0.44300
H2022       H  0.27136988  0.89639280  0.52452081     0.44700
O2023       O  0.17620002  0.55649176  0.89679639    -0.74200
O2024       O  0.14195432  0.52595872  0.88624986    -0.53100
C2025       C  0.15127828  0.55156935  0.89234657     0.79500
O2026       O  0.27792223  0.52414946  0.82392133    -0.58800
O2027       O  0.30057693  0.50816831  0.86525960    -0.51800
C2028       C  0.30009785  0.51884474  0.83904434     0.71500
O2029       O  0.17938709  0.53751794  0.81501225    -0.73400
O2030       O  0.15464060  0.49832335  0.82075902    -0.53900
C2031       C  0.15656927  0.52364122  0.81285871     0.77500
O2032       O  0.24966041  0.55120463  0.94087740    -0.58500
O2033       O  0.28634007  0.52667255  0.92306922    -0.51600
C2034       C  0.27461769  0.54928551  0.93490918     0.74100
Zr2035     Zr  0.20935178  0.52873711  0.92199472     2.54700
O2036       O  0.21224149  0.57682157  0.94618739    -0.79100
O2037       O  0.18148862  0.53153034  0.96770799    -0.92500
Zr2038     Zr  0.22689079  0.52275899  0.83141117     2.64700
O2039       O  0.23357990  0.57438282  0.83385819    -0.97500
O2040       O  0.23069816  0.52186549  0.77593144    -0.79500
O2041       O  0.19425289  0.52568537  0.87064760    -0.82900
O2042       O  0.24244192  0.52632096  0.88291511    -2.17600
O2043       O  0.27787971  0.93724005  0.94747832    -0.66300
O2044       O  0.30928689  0.94251094  0.91192500    -0.50800
C2045       C  0.29896624  0.92847458  0.93356052     0.72500
O2046       O  0.19035479  0.91964626  0.82779692    -0.59200
O2047       O  0.16276532  0.95471883  0.84698326    -0.51100
C2048       C  0.16672268  0.93039285  0.83397769     0.74300
O2049       O  0.28627477  0.92507869  0.81708667    -0.70600
O2050       O  0.31498652  0.95034430  0.84960445    -0.49200
C2051       C  0.31008283  0.93283793  0.82696232     0.75700
O2052       O  0.20364653  0.91846430  0.89383036    -0.65900
O2053       O  0.16858196  0.94649740  0.90195944    -0.53100
C2054       C  0.17927495  0.92139212  0.90063647     0.74100
Zr2055     Zr  0.23536928  0.94577137  0.92336457     2.77500
O2056       O  0.23171873  0.89453238  0.92923063    -0.96600
O2057       O  0.21200524  0.94853855  0.97205780    -0.77500
Zr2058     Zr  0.23882442  0.93610640  0.83338968     2.70100
O2059       O  0.23475221  0.88730860  0.84919666    -0.78700
O2060       O  0.23978895  0.92894100  0.77786756    -0.97800
Zr2061     Zr  0.18900055  0.98703514  0.87554516     2.21500
Zr2062     Zr  0.28892475  0.98047148  0.88208047     2.11100
O2063       O  0.26305223  0.93701528  0.88041995    -2.46500
O2064       O  0.23195356  0.96794184  0.87651531    -0.78500
O2065       O  0.26361841  0.98599517  0.92817355    -0.70700
O2066       O  0.21274260  0.97814804  0.82825091    -2.31700
O2067       O  0.20724273  0.98743182  0.92524774    -2.27900
O2068       O  0.26673883  0.97676443  0.83252999    -0.72500
H2069       H  0.25351809  0.54315208  0.88356568     0.79500
H2070       H  0.20109514  0.97612602  0.81051801     0.80600
H2071       H  0.27341026  0.91966974  0.88128115     0.82800
H2072       H  0.19359633  0.98845251  0.94079442     0.80500
H2073       H  0.22583563  0.54143232  0.77047431     0.43500
H2074       H  0.24468045  0.90857289  0.77412762     0.42500
H2075       H  0.25303567  0.87923002  0.84701279     0.42100
H2076       H  0.24954728  0.88666238  0.92362175     0.40100
H2077       H  0.22253243  0.96236824  0.98512534     0.43200
H2078       H  0.18245335  0.51258824  0.97656239     0.38000
H2079       H  0.19375346  0.58454109  0.94604467     0.44100
H2080       H  0.25149617  0.57738660  0.84341005     0.40500
H2081       H  0.23030420  0.89244786  0.95152560     0.45400
H2082       H  0.16282515  0.53318814  0.96012511     0.44200
H2083       H  0.23607853  0.57922526  0.81233981     0.44300
H2084       H  0.22072361  0.92989843  0.77147389     0.44700
O2085       O  0.02197758  0.56023085  0.67730985    -0.74200
O2086       O  0.04901717  0.59063636  0.70610443    -0.53100
C2087       C  0.04529459  0.57010088  0.68646433     0.79500
O2088       O  0.40827075  0.65715563  0.70408007    -0.58800
O2089       O  0.38718727  0.61550210  0.70439112    -0.51800
C2090       C  0.39210438  0.63883629  0.69150650     0.71500
O2091       O  0.00393006  0.67522993  0.69051573    -0.73400
O2092       O  0.03448117  0.64063457  0.69053675    -0.53900
C2093       C  0.02318997  0.66157729  0.67761156     0.77500
O2094       O  0.42432136  0.55211818  0.67397961    -0.58500
O2095       O  0.40673146  0.55212738  0.72043580    -0.51600
C2096       C  0.40394095  0.54914932  0.69175140     0.74100
Zr2097     Zr  0.47157396  0.56614950  0.68907194     2.54700
O2098       O  0.47335814  0.57122335  0.63408108    -0.79100
O2099       O  0.47373979  0.51439835  0.68169453    -0.92500
Zr2100     Zr  0.45683981  0.65211011  0.70363519     2.64700
O2101       O  0.44143354  0.66855942  0.65460585    -0.97500
O2102       O  0.46499557  0.70320518  0.71188083    -0.79500
O2103       O  0.98892556  0.61490807  0.69913028    -0.82900
O2104       O  0.44021884  0.60469116  0.69698394    -2.17600
O2105       O  0.42991129  0.54095086  0.79574704    -0.66300
O2106       O  0.39544414  0.56440544  0.77289401    -0.50800
C2107       C  0.40429530  0.54559303  0.79028002     0.72500
O2108       O  0.01336241  0.63418096  0.81337637    -0.59200
O2109       O  0.04358386  0.64418774  0.77767895    -0.51100
C2110       C  0.03688563  0.64164964  0.80563816     0.74300
O2111       O  0.42295707  0.63893893  0.81914363    -0.70600
O2112       O  0.39185689  0.61381236  0.79010069    -0.49200
C2113       C  0.40055910  0.62564588  0.81566485     0.75700
O2114       O  0.02808112  0.55822963  0.79057311    -0.65900
O2115       O  0.05160769  0.58973170  0.76322139    -0.53100
C2116       C  0.05047153  0.56938230  0.78136497     0.74100
Zr2117     Zr  0.47622806  0.55920864  0.77892373     2.77500
O2118       O  0.48402493  0.54592052  0.83122580    -0.96600
O2119       O  0.47839046  0.51022872  0.75846659    -0.77500
Zr2120     Zr  0.46394842  0.64538725  0.79132492     2.70100
O2121       O  0.46450503  0.66555826  0.84390196    -0.78700
O2122       O  0.46089636  0.69678033  0.78548602    -0.97800
Zr2123     Zr  0.01977856  0.61737501  0.73705116     2.21500
Zr2124     Zr  0.41705593  0.59773952  0.74397937     2.11100
O2125       O  0.44671080  0.59813212  0.78668442    -2.46500
O2126       O  0.99367221  0.60921258  0.77728970    -0.78500
O2127       O  0.44816517  0.55906419  0.73530144    -0.70700
O2128       O  0.99262608  0.65871644  0.74587055    -2.31700
O2129       O  0.00138765  0.56974111  0.73532931    -2.27900
O2130       O  0.43328687  0.64548914  0.74974766    -0.72500
H2131       H  0.42907257  0.60378895  0.67894476     0.79500
H2132       H  0.00289860  0.67621657  0.74730168     0.80600
H2133       H  0.43816175  0.59302780  0.80516304     0.82800
H2134       H  0.01485754  0.55499077  0.73312796     0.80500
H2135       H  0.44694925  0.71158832  0.71521264     0.43500
H2136       H  0.44331642  0.69954804  0.77539692     0.42500
H2137       H  0.46600692  0.64888494  0.85676316     0.42100
H2138       H  0.48032542  0.56359073  0.84395015     0.40100
H2139       H  0.45957938  0.50529400  0.75295561     0.43200
H2140       H  0.96191196  0.51095418  0.69893590     0.38000
H2141       H  0.97635315  0.55370026  0.62747347     0.44100
H2142       H  0.45452745  0.68323813  0.64903336     0.40500
H2143       H  0.46910325  0.53287137  0.83562830     0.45400
H2144       H  0.45927675  0.50921061  0.66678018     0.44200
H2145       H  0.44455795  0.65219763  0.63975663     0.44300
H2146       H  0.45863008  0.70553652  0.80640847     0.44700
O2147       O  0.04809574  0.81332325  0.68881314    -0.74200
O2148       O  0.07048813  0.85350696  0.69667522    -0.53100
C2149       C  0.06335239  0.83234072  0.67881230     0.79500
O2150       O  0.43853810  0.92649144  0.69888012    -0.58800
O2151       O  0.41417148  0.89281510  0.72230685    -0.51800
C2152       C  0.41570583  0.91468114  0.70636546     0.71500
O2153       O  0.03468730  0.92216446  0.68591250    -0.73400
O2154       O  0.06716558  0.90206044  0.71486021    -0.53900
C2155       C  0.05971420  0.91903060  0.69484268     0.77500
O2156       O  0.46124428  0.82317214  0.67398107    -0.58500
O2157       O  0.42587385  0.84191052  0.70096679    -0.51600
C2158       C  0.43687483  0.83159520  0.67602557     0.74100
Zr2159     Zr  0.50210626  0.83252370  0.70233908     2.54700
O2160       O  0.50323762  0.82244647  0.64724224    -0.79100
O2161       O  0.50065801  0.78132962  0.70902997    -0.92500
Zr2162     Zr  0.48968142  0.91866521  0.70452773     2.64700
O2163       O  0.48507728  0.91699612  0.64901687    -0.97500
O2164       O  0.48391650  0.96998620  0.70450221    -0.79500
O2165       O  0.01466274  0.86511156  0.70154645    -0.82900
O2166       O  0.47253934  0.87236240  0.70328646    -2.17600
O2167       O  0.46202597  0.82560385  0.81637640    -0.66300
O2168       O  0.42608989  0.83778352  0.78741205    -0.50800
C2169       C  0.43686026  0.82904179  0.81220540     0.72500
O2170       O  0.03702402  0.90958605  0.81019919    -0.59200
O2171       O  0.05799001  0.91148440  0.76597083    -0.51100
C2172       C  0.05889767  0.91184526  0.79450670     0.74300
O2173       O  0.44114320  0.92363157  0.80758451    -0.70600
O2174       O  0.41642493  0.89012880  0.77965264    -0.49200
C2175       C  0.41868361  0.91087949  0.79939450     0.75700
O2176       O  0.03954059  0.82902048  0.81279862    -0.65900
O2177       O  0.07038936  0.85136949  0.78457637    -0.53100
C2178       C  0.06165781  0.84213723  0.80988043     0.74100
Zr2179     Zr  0.50283877  0.83397500  0.78978951     2.77500
O2180       O  0.50711864  0.80940098  0.83741498    -0.96600
O2181       O  0.51222023  0.78453804  0.77318638    -0.77500
Zr2182     Zr  0.49077993  0.91916599  0.79521475     2.70100
O2183       O  0.48734063  0.92707380  0.85050702    -0.78700
O2184       O  0.48819478  0.97054277  0.79109536    -0.97800
Zr2185     Zr  0.04372953  0.86844092  0.74156189     2.21500
Zr2186     Zr  0.44663037  0.86569229  0.74734818     2.11100
O2187       O  0.47220221  0.87292895  0.79333182    -2.46500
O2188       O  0.01491452  0.86332274  0.78047758    -0.78500
O2189       O  0.47522290  0.82519204  0.74573276    -0.70700
O2190       O  0.01327452  0.90891847  0.74572887    -2.31700
O2191       O  0.02784888  0.82037546  0.73864190    -2.27900
O2192       O  0.46425799  0.91378099  0.74986526    -0.72500
H2193       H  0.46186081  0.87389459  0.68520250     0.79500
H2194       H  0.02052722  0.92803441  0.74597443     0.80600
H2195       H  0.46165056  0.87407963  0.81165110     0.82800
H2196       H  0.04213185  0.80648461  0.73951358     0.80500
H2197       H  0.99087580  0.96184147  0.72747525     0.43500
H2198       H  0.46896986  0.97518614  0.79401448     0.42500
H2199       H  0.48334377  0.94770922  0.85377168     0.42100
H2200       H  0.52468748  0.79952570  0.83663382     0.40100
H2201       H  0.53031520  0.78067785  0.78148597     0.43200
H2202       H  0.51901614  0.77454957  0.70409341     0.38000
H2203       H  0.98886253  0.84486102  0.63699624     0.44100
H2204       H  0.46666338  0.92400325  0.64527926     0.40500
H2205       H  0.50904802  0.82461934  0.85391703     0.45400
H2206       H  0.48939600  0.77339267  0.69186882     0.44200
H2207       H  0.49683677  0.93250006  0.64245746     0.44300
H2208       H  0.49713502  0.97852743  0.80994291     0.44700
C2209       C  0.34999669  0.94192404  0.79630338     0.24700
C2210       C  0.33509815  0.92241599  0.81272962    -0.23400
C2211       C  0.34900191  0.90093982  0.82728854     0.19600
C2212       C  0.37710233  0.89987664  0.82682153     0.24600
C2213       C  0.39214965  0.91982713  0.81107847    -0.23400
C2214       C  0.37813260  0.94057386  0.79539446     0.19500
F2215       F  0.39170565  0.95868218  0.77793447    -0.13300
F2216       F  0.33720025  0.96310269  0.78211747    -0.15700
F2217       F  0.38965505  0.87857866  0.84090560    -0.15700
F2218       F  0.33526311  0.88168409  0.84316162    -0.13300
C2219       C  0.10844689  0.90147472  0.78813813     0.24700
C2220       C  0.08669668  0.91105721  0.80726879    -0.23400
C2221       C  0.09237866  0.91999279  0.83739909     0.19600
C2222       C  0.11896611  0.92168500  0.84752544     0.24600
C2223       C  0.14082340  0.91564466  0.82728971    -0.23400
C2224       C  0.13513771  0.90399348  0.79805657     0.19500
F2225       F  0.15528792  0.89772924  0.77807546    -0.13300
F2226       F  0.10418265  0.89038723  0.75920402    -0.15700
F2227       F  0.12320068  0.93250856  0.87647745    -0.15700
F2228       F  0.07243253  0.92914241  0.85647852    -0.13300
C2229       C  0.34974358  0.53057225  0.84641509     0.24700
C2230       C  0.32775848  0.52377566  0.82632610    -0.23400
C2231       C  0.33366146  0.51784604  0.79529655     0.19600
C2232       C  0.36001148  0.52094622  0.78442729     0.24600
C2233       C  0.38152411  0.52994578  0.80406415    -0.23400
C2234       C  0.37610896  0.53364195  0.83540950     0.19500
F2235       F  0.39594677  0.54224721  0.85520594    -0.13300
F2236       F  0.34562858  0.53533236  0.87690358    -0.15700
F2237       F  0.36426486  0.51732345  0.75392183    -0.15700
F2238       F  0.31399650  0.50890613  0.77538359    -0.13300
C2239       C  0.10130449  0.57457285  0.78698060     0.24700
C2240       C  0.07749595  0.55825441  0.79071907    -0.23400
C2241       C  0.08045629  0.53039662  0.79999573     0.19600
C2242       C  0.10588120  0.51951997  0.80653090     0.24600
C2243       C  0.12990277  0.53581249  0.80314022    -0.23400
C2244       C  0.12702476  0.56334034  0.79268369     0.19500
F2245       F  0.14902690  0.57945717  0.78782650    -0.13300
F2246       F  0.09989269  0.60157914  0.77740218    -0.15700
F2247       F  0.10639461  0.49275176  0.81684813    -0.15700
F2248       F  0.05875813  0.51309128  0.80205484    -0.13300
C2249       C  0.36692622  0.90594539  0.69103467     0.24700
C2250       C  0.38834257  0.92565909  0.69711369    -0.23400
C2251       C  0.38171223  0.95485862  0.69895847     0.19600
C2252       C  0.35520542  0.96397604  0.69286864     0.24600
C2253       C  0.33443534  0.94426458  0.68428750    -0.23400
C2254       C  0.34057760  0.91511197  0.68461497     0.19500
F2255       F  0.32142953  0.89535725  0.67692692    -0.13300
F2256       F  0.37157833  0.87737595  0.69052344    -0.15700
F2257       F  0.34984069  0.99240721  0.69484931    -0.15700
F2258       F  0.40066814  0.97459958  0.70740229    -0.13300
C2259       C  0.10437260  0.94361377  0.70149186     0.24700
C2260       C  0.08336503  0.93353450  0.68151296    -0.23400
C2261       C  0.08956267  0.92828423  0.65058164     0.19600
C2262       C  0.11596382  0.93175080  0.64010583     0.24600
C2263       C  0.13736559  0.94015564  0.66035474    -0.23400
C2264       C  0.13094166  0.94661240  0.69113501     0.19500
F2265       F  0.15020515  0.95656674  0.71108168    -0.13300
F2266       F  0.09928795  0.94947628  0.73163500    -0.15700
F2267       F  0.12060779  0.92642996  0.60982090    -0.15700
F2268       F  0.07047602  0.91766008  0.63079801    -0.13300
C2269       C  0.35362761  0.55390190  0.69840246     0.24700
C2270       C  0.37583880  0.54442160  0.68022839    -0.23400
C2271       C  0.37055691  0.53129111  0.65142377     0.19600
C2272       C  0.34414091  0.52861007  0.64053265     0.24600
C2273       C  0.32188204  0.53922015  0.65815578    -0.23400
C2274       C  0.32707108  0.55087342  0.68768073     0.19500
F2275       F  0.30660318  0.56032136  0.70584071    -0.13300
F2276       F  0.35746414  0.56748943  0.72625880    -0.15700
F2277       F  0.34062390  0.51538698  0.61237266    -0.15700
F2278       F  0.39096069  0.52095754  0.63364999    -0.13300
C2279       C  0.07834336  0.56286749  0.64519051     0.24700
C2280       C  0.07079289  0.55838467  0.67505263    -0.23400
C2281       C  0.09080100  0.55205029  0.69672819     0.19600
C2282       C  0.11794884  0.55095477  0.68883209     0.24600
C2283       C  0.12555570  0.55526342  0.65875679    -0.23400
C2284       C  0.10530823  0.56112708  0.63708378     0.19500
F2285       F  0.11137084  0.56336438  0.60731752    -0.13300
F2286       F  0.05970171  0.56972448  0.62404270    -0.15700
F2287       F  0.13647196  0.54350735  0.70988236    -0.15700
F2288       F  0.08384986  0.54707224  0.72577360    -0.13300
C2289       C  0.33909581  0.87410646  0.52192814     0.24700
C2290       C  0.33253201  0.85140289  0.54101482    -0.23400
C2291       C  0.32220387  0.85905410  0.57015541     0.19600
C2292       C  0.31834083  0.88816983  0.57960177     0.24600
C2293       C  0.32392916  0.91026485  0.55976955    -0.23400
C2294       C  0.33455872  0.90270617  0.53106565     0.19500
F2295       F  0.34051664  0.92327140  0.51149414    -0.13300
F2296       F  0.35015631  0.86896537  0.49389312    -0.15700
F2297       F  0.30844786  0.89457027  0.60789230    -0.15700
F2298       F  0.31632139  0.83853940  0.58972157    -0.13300
C2299       C  0.31663385  0.62727327  0.57260163     0.24700
C2300       C  0.30760031  0.64494003  0.54962133    -0.23400
C2301       C  0.29130683  0.63259383  0.52613899     0.19600
C2302       C  0.28524980  0.60333646  0.52482324     0.24600
C2303       C  0.29464093  0.58529537  0.54750911    -0.23400
C2304       C  0.31030166  0.59789211  0.57163835     0.19500
F2305       F  0.31906573  0.58208471  0.59472331    -0.13300
F2306       F  0.32082869  0.64641882  0.12207898    -0.15700
F2307       F  0.26996057  0.59256282  0.50107919    -0.15700
F2308       F  0.28286975  0.64857362  0.50295560    -0.13300
C2309       C  0.32907377  0.88531009  0.92248217     0.24700
C2310       C  0.30929979  0.89933944  0.94063181    -0.23400
C2311       C  0.29633834  0.88332987  0.96278393     0.19600
C2312       C  0.30282235  0.85459846  0.96654268     0.24600
C2313       C  0.32210122  0.84060513  0.94803519    -0.23400
C2314       C  0.33533008  0.85635481  0.92611016     0.19500
F2315       F  0.35482373  0.84377046  0.90856239    -0.13300
F2316       F  0.34252678  0.89959014  0.90127747    -0.15700
F2317       F  0.29112931  0.84080413  0.98945092    -0.15700
F2318       F  0.27706665  0.89531441  0.98096429    -0.13300
C2319       C  0.28616209  0.62836001  0.92779882     0.24700
C2320       C  0.30718937  0.63384604  0.94853481    -0.23400
C2321       C  0.31941469  0.61017553  0.96251419     0.19600
C2322       C  0.31035458  0.58222886  0.95650609     0.24600
C2323       C  0.28844952  0.57714734  0.93721097    -0.23400
C2324       C  0.27669973  0.60034101  0.92244237     0.19500
F2325       F  0.25497071  0.59601587  0.90387695    -0.13300
F2326       F  0.27330748  0.65019376  0.91477490    -0.15700
F2327       F  0.32143863  0.56060940  0.97171466    -0.15700
F2328       F  0.33905209  0.61401359  0.98398935    -0.13300
C2329       C  0.40480771  0.80181397  0.84234643     0.24700
C2330       C  0.42117422  0.82560889  0.84004577    -0.23400
C2331       C  0.42922388  0.84147218  0.86709878     0.19600
C2332       C  0.42403076  0.83136208  0.89597590     0.24600
C2333       C  0.41127602  0.80500726  0.89799815    -0.23400
C2334       C  0.39989931  0.79148911  0.87109977     0.19500
F2335       F  0.38520397  0.76721220  0.87245902    -0.13300
F2336       F  0.39596877  0.78693016  0.81674021    -0.15700
F2337       F  0.43349213  0.84594505  0.92148608    -0.15700
F2338       F  0.44404369  0.86563465  0.86539367    -0.13300
C2339       C  0.43320227  0.84520340  0.59252980     0.24700
C2340       C  0.41192776  0.82755403  0.58313806    -0.23400
C2341       C  0.39417560  0.81790936  0.60563683     0.19600
C2342       C  0.40054522  0.82136588  0.63684148     0.24600
C2343       C  0.42417222  0.83530665  0.64587873    -0.23400
C2344       C  0.43913846  0.84934889  0.62366517     0.19500
F2345       F  0.46150127  0.86447518  0.63166026    -0.13300
F2346       F  0.45037165  0.85509958  0.57162661    -0.15700
F2347       F  0.38551155  0.80815479  0.65757742    -0.15700
F2348       F  0.37265463  0.80150128  0.59749659    -0.13300
C2349       C  0.40337653  0.60748467  0.86739286     0.24700
C2350       C  0.38748433  0.62014063  0.84488269    -0.23400
C2351       C  0.36359915  0.63369789  0.85369084     0.19600
C2352       C  0.35794188  0.63842007  0.88488041     0.24600
C2353       C  0.37652129  0.63040910  0.90734093    -0.23400
C2354       C  0.39787546  0.61254753  0.89846841     0.19500
F2355       F  0.41603569  0.60431265  0.91955069    -0.13300
F2356       F  0.42649944  0.59370827  0.85953818    -0.15700
F2357       F  0.33700152  0.65556981  0.89301451    -0.15700
F2358       F  0.34792905  0.64600706  0.83264378    -0.13300
C2359       C  0.39180434  0.63155059  0.60523526     0.24700
C2360       C  0.38929519  0.66055940  0.59893684    -0.23400
C2361       C  0.37980757  0.67981343  0.62241821     0.19600
C2362       C  0.37708772  0.67149086  0.65228730     0.24600
C2363       C  0.38314600  0.64353016  0.65965904    -0.24600
C2364       C  0.38842274  0.62303086  0.63544513     0.19500
F2365       F  0.39260258  0.59529347  0.64130212    -0.13300
F2366       F  0.39897708  0.61187663  0.58284859    -0.15700
F2367       F  0.37062832  0.69152267  0.67462515    -0.15700
F2368       F  0.37417743  0.70740342  0.61678145    -0.13300
C2369       C  0.15236348  0.86518991  0.94978725     0.24700
C2370       C  0.15911589  0.83967351  0.93232717    -0.23400
C2371       C  0.16779251  0.84228802  0.90218692     0.19600
C2372       C  0.17047813  0.86933623  0.89027668     0.24600
C2373       C  0.16547573  0.89466809  0.90841950    -0.23400
C2374       C  0.15542187  0.89219076  0.93789065     0.19500
F2375       F  0.15062426  0.91597885  0.95617681    -0.13300
F2376       F  0.14321260  0.86434724  0.97885750    -0.15700
F2377       F  0.17952237  0.87081717  0.86127921    -0.15700
F2378       F  0.17430652  0.81871965  0.88435544    -0.13300
C2379       C  0.14093874  0.60160746  0.87954207     0.24700
C2380       C  0.13457179  0.57769383  0.89653477    -0.23400
C2381       C  0.12284671  0.58281649  0.92520057     0.19600
C2382       C  0.12000035  0.61072857  0.93790306     0.24600
C2383       C  0.12755879  0.63497325  0.92173497    -0.23400
C2384       C  0.13748262  0.62988787  0.89192466     0.19500
F2385       F  0.14466322  0.65208624  0.87512646    -0.13300
F2386       F  0.15263341  0.59744128  0.85177133    -0.15700
F2387       F  0.11138079  0.61366122  0.96723325    -0.15700
F2388       F  0.11717374  0.56059194  0.94271484    -0.13300
C2389       C  0.19079186  0.84416204  0.52867871     0.24700
C2390       C  0.17593386  0.83290637  0.55241634    -0.23400
C2391       C  0.16880141  0.85127050  0.57743556     0.19600
C2392       C  0.17300492  0.88077412  0.57669769     0.24600
C2393       C  0.18401923  0.89258701  0.55064172    -0.23400
C2394       C  0.19421679  0.87369837  0.52733588     0.19500
F2395       F  0.20629651  0.88373278  0.50238289    -0.13300
F2396       F  0.19811076  0.82689939  0.50419927    -0.15700
F2397       F  0.16602123  0.89769546  0.60143716    -0.15700
F2398       F  0.15484176  0.84100815  0.60096267    -0.13300
C2399       C  0.14257316  0.62650810  0.56929900     0.24700
C2400       C  0.13118962  0.63308244  0.54106529    -0.23400
C2401       C  0.12525690  0.61009101  0.51952645     0.19600
C2402       C  0.13060298  0.58179354  0.52586415     0.24600
C2403       C  0.14215540  0.57524024  0.55377040    -0.23400
C2404       C  0.14831483  0.59787532  0.57542107     0.19500
F2405       F  0.16113758  0.59234496  0.60191203    -0.13300
F2406       F  0.14807147  0.64761804  0.59090878    -0.15700
F2407       F  0.12557988  0.56071315  0.50399132    -0.15700
F2408       F  0.11495152  0.61491579  0.49150076    -0.13300
C2409       C  0.05783302  0.86390229  0.86170664     0.24700
C2410       C  0.07445062  0.84995242  0.83947125    -0.23400
C2411       C  0.09747781  0.83598724  0.84897704     0.19600
C2412       C  0.10149911  0.83251550  0.88020956     0.24600
C2413       C  0.08350711  0.84447202  0.90226416    -0.23400
C2414       C  0.06277000  0.86182154  0.89280028     0.19500
F2415       F  0.04443345  0.87233751  0.91326474    -0.13300
F2416       F  0.03399846  0.87514045  0.85346978    -0.15700
F2417       F  0.11971363  0.81286525  0.88808657    -0.15700
F2418       F  0.11319551  0.82141162  0.82826337    -0.13300
C2419       C  0.08650828  0.84971720  0.63098847     0.24700
C2420       C  0.06827858  0.83170791  0.64523567    -0.23400
C2421       C  0.05079475  0.81511767  0.62643173     0.19600
C2422       C  0.04826543  0.81946530  0.59567556     0.24600
C2423       C  0.06768127  0.83470378  0.58054820    -0.23400
C2424       C  0.08689745  0.85034958  0.59862620     0.19500
F2425       F  0.10555794  0.86644547  0.58517776    -0.13300
F2426       F  0.10453702  0.86548064  0.64805388    -0.15700
F2427       F  0.02721591  0.80710046  0.58056369    -0.15700
F2428       F  0.03591178  0.79396300  0.63746564    -0.13300
C2429       C  0.06225513  0.67820837  0.83462234     0.24700
C2430       C  0.05502220  0.64954343  0.83105229    -0.23400
C2431       C  0.05499976  0.63276962  0.85681373     0.19600
C2432       C  0.05680462  0.64581727  0.88636262     0.24600
C2433       C  0.05911808  0.67569268  0.89004118    -0.23400
C2434       C  0.06412945  0.69128319  0.86376376     0.19500
F2435       F  0.06939419  0.71976857  0.86584026    -0.13300
F2436       F  0.06341169  0.69463056  0.81005566    -0.15700
F2437       F  0.05445987  0.62957355  0.91093183    -0.15700
F2438       F  0.05020407  0.60425708  0.85328374    -0.13300
C2439       C  0.04838563  0.65372897  0.62690876     0.24700
C2440       C  0.03028726  0.66959531  0.64589061    -0.23400
C2441       C  0.01552656  0.69158317  0.63270389     0.19600
C2442       C  0.01787564  0.69691911  0.60193835     0.24600
C2443       C  0.03632513  0.68180054  0.58294492    -0.23400
C2444       C  0.05157940  0.65996520  0.59586651     0.19500
F2445       F  0.06994040  0.64498052  0.57875888    -0.13300
F2446       F  0.06305207  0.63227686  0.63824971    -0.15700
F2447       F  0.00208228  0.71775241  0.59111461    -0.15700
F2448       F  0.99813095  0.70825390  0.64940763    -0.13300
O2449       O  0.63680683  0.19774665  0.06038681    -0.74200
O2450       O  0.64316359  0.17542609  0.01519773    -0.53100
C2451       C  0.64188860  0.17463487  0.04373975     0.79500
O2452       O  0.52014386  0.26509242  0.03365835    -0.58800
O2453       O  0.54104547  0.30609422  0.03035671    -0.51800
C2454       C  0.52795989  0.28880447  0.04634419     0.71500
O2455       O  0.54735350  0.17379734  0.04838711    -0.73400
O2456       O  0.58723097  0.15581053  0.03261744    -0.53900
C2457       C  0.56768571  0.15764760  0.05155745     0.77500
O2458       O  0.62275662  0.29869806  0.05982992    -0.58500
O2459       O  0.59276732  0.32102864  0.02984169    -0.51600
C2460       C  0.60969541  0.32117377  0.05178605     0.74100
Zr2461     Zr  0.62563496  0.24677883  0.04257185     2.54700
O2462       O  0.62851662  0.25315182  0.09810685    -0.79100
O2463       O  0.67406696  0.25337327  0.04188062    -0.92500
Zr2464     Zr  0.54789306  0.22283825  0.03454019     2.64700
O2465       O  0.55457585  0.22841467  0.08978565    -0.97500
O2466       O  0.50280921  0.20473495  0.04223097    -0.79500
O2467       O  0.59346488  0.20926591  0.03733656    -0.82900
O2468       O  0.57992972  0.26063911  0.03914350    -2.17600
O2469       O  0.62909305  0.29212944  0.43416293    -0.66300
O2470       O  0.61637182  0.32152188  0.47410853    -0.50800
C2471       C  0.62479094  0.31750816  0.44693906     0.72500
O2472       O  0.54486375  0.19738606  0.42157685    -0.59200
O2473       O  0.56256755  0.16254347  0.44930516    -0.51100
C2474       C  0.55681375  0.17351393  0.42389364     0.74300
O2475       O  0.53896743  0.28639180  0.42782179    -0.70600
O2476       O  0.56384708  0.32045902  0.45414905    -0.49200
C2477       C  0.55026902  0.31101028  0.43036400     0.75700
O2478       O  0.63423182  0.19082984  0.43139452    -0.65900
O2479       O  0.61056061  0.16066524  0.45979332    -0.53100
C2480       C  0.62711007  0.16538837  0.43873714     0.74100
Zr2481     Zr  0.62497717  0.24144394  0.45125752     2.77500
O2482       O  0.64085720  0.24366009  0.39878327    -0.96600
O2483       O  0.67143734  0.24505813  0.46863587    -0.77500
Zr2484     Zr  0.54268763  0.24115093  0.45206183     2.70100
O2485       O  0.52119702  0.24300552  0.40198725    -0.78700
O2486       O  0.49557821  0.23739636  0.46595387    -0.97800
Zr2487     Zr  0.58300297  0.18894775  0.49246743     2.21500
Zr2488     Zr  0.57435831  0.28701404  0.99390134     2.11100
O2489       O  0.58383543  0.26621156  0.45161218    -2.46500
O2490       O  0.58389314  0.21960416  0.45468110    -0.78500
O2491       O  0.62483662  0.26932727  0.49814342    -0.70700
O2492       O  0.55569223  0.19476813  0.98822196    -2.31700
O2493       O  0.62530752  0.21334279  0.49452174    -2.27900
O2494       O  0.54085251  0.25058416  0.99063701    -0.72500
H2495       H  0.57633535  0.27239399  0.05743117     0.79500
H2496       H  0.54484055  0.17768239  0.98617643     0.80600
H2497       H  0.58505436  0.27585673  0.43303893     0.82800
H2498       H  0.64051832  0.20056403  0.49362361     0.80500
H2499       H  0.50273650  0.19780867  0.06320067     0.43500
H2500       H  0.49130703  0.21676650  0.46372021     0.42500
H2501       H  0.53599291  0.24135764  0.38700130     0.42100
H2502       H  0.62456513  0.24616638  0.38615905     0.40100
H2503       H  0.67972918  0.25878894  0.45513962     0.43200
H2504       H  0.67761679  0.26879003  0.05778617     0.38000
H2505       H  0.64798624  0.25332243  0.10275727     0.44100
H2506       H  0.54907644  0.20997896  0.09778449     0.40500
H2507       H  0.64769547  0.22444551  0.39240561     0.45400
H2508       H  0.67754996  0.26231840  0.02234504     0.44200
H2509       H  0.57424933  0.22919229  0.09290134     0.44300
H2510       H  0.49480681  0.24218145  0.48824246     0.44700
O2511       O  0.89302793  0.21579232  0.06831173    -0.74200
O2512       O  0.88033853  0.17576950  0.04023991    -0.53100
C2513       C  0.88676436  0.18929527  0.06591001     0.79500
O2514       O  0.80609744  0.30804861  0.03033371    -0.58800
O2515       O  0.83148051  0.33270167  0.99763811    -0.51800
C2516       C  0.81386410  0.33161939  0.01836098     0.71500
O2517       O  0.80546874  0.20616914  0.04347051    -0.73400
O2518       O  0.86379432  0.17200729  0.51988998    -0.53900
C2519       C  0.81452531  0.17994618  0.04059496     0.77500
O2520       O  0.91151232  0.30361390  0.02748696    -0.58500
O2521       O  0.88107376  0.33531549  0.01818707    -0.51600
C2522       C  0.89780916  0.32513868  0.03696281     0.74100
Zr2523     Zr  0.89664599  0.25583169  0.03667349     2.54700
O2524       O  0.88261574  0.27152836  0.08789948    -0.79100
O2525       O  0.94224504  0.24975358  0.05529352    -0.92500
Zr2526     Zr  0.81659347  0.25493335  0.02379302     2.64700
O2527       O  0.80778922  0.26477296  0.07808237    -0.97500
O2528       O  0.76878820  0.25392828  0.01187372    -0.79500
O2529       O  0.85664921  0.22929377  0.03223323    -0.82900
O2530       O  0.85697646  0.28171391  0.02647935    -2.17600
O2531       O  0.90254135  0.29897299  0.40381089    -0.66300
O2532       O  0.87523292  0.33143746  0.42890547    -0.50800
C2533       C  0.88756161  0.32133400  0.40473311     0.72500
O2534       O  0.82970215  0.18327088  0.42961502    -0.59200
O2535       O  0.86222128  0.16389186  0.45924734    -0.51100
C2536       C  0.84239577  0.16174432  0.44050613     0.74300
O2537       O  0.80574224  0.28236437  0.42444107    -0.70600
O2538       O  0.83156262  0.32190599  0.43591832    -0.49200
C2539       C  0.81040569  0.30992676  0.42508489     0.75700
O2540       O  0.93776379  0.21595023  0.43595772    -0.65900
O2541       O  0.91218614  0.17885829  0.44557462    -0.53100
C2542       C  0.92854373  0.19138123  0.42815112     0.74100
Zr2543     Zr  0.91127116  0.25860752  0.43498904     2.77500
O2544       O  0.91536807  0.24200168  0.38149797    -0.96600
O2545       O  0.95522241  0.28032437  0.42934429    -0.77500
Zr2546     Zr  0.83167882  0.23688955  0.43596552     2.70100
O2547       O  0.83556782  0.23220862  0.38047334    -0.78700
O2548       O  0.78460609  0.22335468  0.43148105    -0.97800
Zr2549     Zr  0.88504632  0.20259511  0.48624883     2.21500
Zr2550     Zr  0.86036900  0.30615308  0.47387816     2.11100
O2551       O  0.86540758  0.27142283  0.43308839    -2.46500
O2552       O  0.87773048  0.22220057  0.43766747    -0.78500
O2553       O  0.90658370  0.29398893  0.47585966    -0.70700
O2554       O  0.83848723  0.21625328  0.48401065    -2.31700
O2555       O  0.91975245  0.23772160  0.48326742    -2.27900
O2556       O  0.82610018  0.27015428  0.47820202    -0.72500
H2557       H  0.85450303  0.29638630  0.04254099     0.79500
H2558       H  0.82657743  0.20023665  0.48601428     0.80600
H2559       H  0.86061665  0.27889021  0.41383463     0.82800
H2560       H  0.93745064  0.23010678  0.48687875     0.80500
H2561       H  0.76423059  0.23336724  0.00936403     0.43500
H2562       H  0.77541345  0.23608756  0.44688645     0.42500
H2563       H  0.82217107  0.21747441  0.37392739     0.42100
H2564       H  0.92482697  0.25740790  0.37134764     0.40100
H2565       H  0.95216236  0.30111515  0.43288937     0.43200
H2566       H  0.95350820  0.25869844  0.03993646     0.38000
H2567       H  0.86357538  0.26572265  0.08903295     0.44100
H2568       H  0.78904970  0.27177857  0.07879418     0.40500
H2569       H  0.89687003  0.24214960  0.37315313     0.45400
H2570       H  0.94579825  0.22902949  0.05203611     0.44200
H2571       H  0.80705542  0.24587766  0.08706911     0.44300
H2572       H  0.77872434  0.23023269  0.41151891     0.44700
O2573       O  0.67671948  0.05071439  0.16579351    -0.74200
O2574       O  0.65200128  0.02426622  0.13043271    -0.53100
C2575       C  0.65401477  0.04134600  0.15375449     0.79500
O2576       O  0.77416560  0.05135683  0.04466308    -0.58800
O2577       O  0.80205544  0.04902133  0.08370243    -0.51800
C2578       C  0.79187787  0.06320286  0.06203058     0.71500
O2579       O  0.68857250  0.07058086  0.07374674    -0.73400
O2580       O  0.65578771  0.03727796  0.07401867    -0.53900
C2581       C  0.66403358  0.06335204  0.07361304     0.77500
O2582       O  0.77387331  0.05131998  0.17456469    -0.58500
O2583       O  0.80485520  0.02977101  0.14260206    -0.51600
C2584       C  0.79836013  0.04427727  0.16676932     0.74100
Zr2585     Zr  0.72651022  0.04318964  0.15391457     2.54700
O2586       O  0.72364091  0.09511226  0.15843280    -0.79100
O2587       O  0.72574957  0.04023764  0.20931689    -0.92500
Zr2588     Zr  0.72896032  0.04619113  0.06182414     2.64700
O2589       O  0.73296801  0.09770532  0.05806699    -0.97500
O2590       O  0.71257324  0.04717937  0.00935430    -0.79500
O2591       O  0.70857485  0.03653575  0.10605532    -0.82900
O2592       O  0.75292830  0.04804680  0.10923638    -2.17600
O2593       O  0.77017427  0.45119058  0.14384220    -0.66300
O2594       O  0.79269472  0.47734469  0.10942909    -0.50800
C2595       C  0.79215190  0.45966375  0.13067488     0.72500
O2596       O  0.66992739  0.43128152  0.06946169    -0.59200
O2597       O  0.63533223  0.45860191  0.08650215    -0.51100
C2598       C  0.64571937  0.43409684  0.07847532     0.74300
O2599       O  0.74269991  0.44356183  0.03075084    -0.70600
O2600       O  0.77858439  0.46648957  0.05328816    -0.49200
C2601       C  0.76735444  0.44463736  0.03888330     0.75700
O2602       O  0.67188786  0.43668012  0.15019004    -0.65900
O2603       O  0.64235731  0.47317095  0.14897928    -0.53100
C2604       C  0.64740275  0.44704400  0.15230310     0.74100
Zr2605     Zr  0.71910195  0.45730789  0.14083929     2.77500
O2606       O  0.72532714  0.40573306  0.13543689    -0.96600
O2607       O  0.72360513  0.45591912  0.19618509    -0.77500
Zr2608     Zr  0.70167792  0.46414436  0.05011141     2.70100
O2609       O  0.70597776  0.42112073  0.01668347    -0.78700
O2610       O  0.67012075  0.46960713  0.00764776    -0.97800
Zr2611     Zr  0.66048672  0.49985161  0.11030108     2.21500
Zr2612     Zr  0.78028838  0.00595300  0.10353617     2.11100
O2613       O  0.73408341  0.46235233  0.09020800    -2.46500
O2614       O  0.68756566  0.45943984  0.10072587    -0.78500
O2615       O  0.75450242  0.00226917  0.14984217    -0.70700
O2616       O  0.70414324  0.00322417  0.05163072    -2.31700
O2617       O  0.69238828  0.49830920  0.15217865    -2.27900
O2618       O  0.75866363  0.00655671  0.05524748    -0.72500
H2619       H  0.76297654  0.06559673  0.11227795     0.79500
H2620       H  0.69224307  0.00316217  0.03410552     0.80600
H2621       H  0.74513759  0.44559012  0.08772100     0.82800
H2622       H  0.68389336  0.49655296  0.17173810     0.80500
H2623       H  0.69398916  0.05451040  0.01110941     0.43500
H2624       H  0.67308990  0.45332977  0.99274878     0.42500
H2625       H  0.68955167  0.40976491  0.01962801     0.42100
H2626       H  0.74438567  0.40290705  0.12984319     0.40100
H2627       H  0.72053385  0.47582717  0.20411729     0.43200
H2628       H  0.70655606  0.04118108  0.21491205     0.38000
H2629       H  0.71394472  0.09931152  0.17783206     0.44100
H2630       H  0.72761808  0.10637272  0.07825774     0.40500
H2631       H  0.72410866  0.39933472  0.15656137     0.45400
H2632       H  0.73328779  0.05869198  0.21748418     0.44200
H2633       H  0.71869652  0.10318817  0.04365265     0.44300
H2634       H  0.67579751  0.48668325  0.99711152     0.44700
O2635       O  0.70498289  0.06151630  0.41031149    -0.74200
O2636       O  0.66846001  0.03299808  0.40795016    -0.53100
C2637       C  0.67959279  0.05809863  0.40945271     0.79500
O2638       O  0.78680375  0.03139630  0.31721447    -0.58800
O2639       O  0.81517212  0.00807856  0.34845058    -0.51800
C2640       C  0.81088918  0.02391827  0.32627569     0.71500
O2641       O  0.68785128  0.03230506  0.32011495    -0.73400
O2642       O  0.65993660  0.00936573  0.35198535    -0.53900
C2643       C  0.66396885  0.02478123  0.32946211     0.77500
O2644       O  0.78633513  0.04027245  0.44276354    -0.58500
O2645       O  0.81367169  0.02534071  0.40467119    -0.51600
C2646       C  0.80677180  0.04391012  0.42602536     0.74100
Zr2647     Zr  0.74087305  0.03166829  0.42559677     2.54700
O2648       O  0.75426693  0.08070567  0.43931920    -0.79100
O2649       O  0.71757369  0.04104004  0.47408848    -0.92500
Zr2650     Zr  0.73766683  0.02255579  0.33159315     2.64700
O2651       O  0.73736525  0.07328562  0.32217499    -0.97500
O2652       O  0.73637075  0.00928749  0.27704000    -0.79500
O2653       O  0.71619569  0.02753431  0.37945540    -0.82900
O2654       O  0.76350926  0.02737284  0.37795561    -2.17600
O2655       O  0.75126126  0.43012549  0.44014770    -0.66300
O2656       O  0.78459114  0.44136476  0.40915324    -0.50800
C2657       C  0.77246088  0.42323053  0.42543143     0.72500
O2658       O  0.67095386  0.42806018  0.31281174    -0.59200
O2659       O  0.64052680  0.45787248  0.33723098    -0.51100
C2660       C  0.64650789  0.43651024  0.31945923     0.74300
O2661       O  0.76856933  0.44297410  0.31149009    -0.70600
O2662       O  0.79366754  0.45414824  0.35396468    -0.49200
C2663       C  0.79167103  0.44646732  0.32576246     0.75700
O2664       O  0.67530318  0.42090427  0.38561801    -0.65900
O2665       O  0.64064967  0.44915500  0.39534390    -0.53100
C2666       C  0.65130712  0.42397494  0.39424971     0.74100
Zr2667     Zr  0.70957561  0.44310720  0.41637693     2.77500
O2668       O  0.71483385  0.39180541  0.42113625    -0.96600
O2669       O  0.68019050  0.43756969  0.45985350    -0.77500
Zr2670     Zr  0.71892981  0.44375990  0.32599615     2.70100
O2671       O  0.72434055  0.39219309  0.32710501    -0.78700
O2672       O  0.71836598  0.44149058  0.27026943    -0.97800
Zr2673     Zr  0.66485791  0.48842561  0.37085018     2.21500
Zr2674     Zr  0.76564868  0.48356590  0.38487104     2.11100
O2675       O  0.73966044  0.44110612  0.37476752    -2.46500
O2676       O  0.69566913  0.45359528  0.36941094    -0.78500
O2677       O  0.73747358  0.48387643  0.42798534    -0.70700
O2678       O  0.69286123  0.48633634  0.32565468    -2.31700
O2679       O  0.68335640  0.48629364  0.42077584    -2.27900
O2680       O  0.74629168  0.48461249  0.33410164    -0.72500
H2681       H  0.77505737  0.04372807  0.37626340     0.79500
H2682       H  0.68226869  0.48636142  0.30708448     0.80600
H2683       H  0.74991293  0.42364194  0.37363350     0.82800
H2684       H  0.66946299  0.48645782  0.43604290     0.80500
H2685       H  0.74453493  0.02575500  0.26737281     0.43500
H2686       H  0.71384762  0.42134905  0.26437378     0.42500
H2687       H  0.70717987  0.38535239  0.33524816     0.42100
H2688       H  0.69664609  0.38420251  0.42446445     0.40100
H2689       H  0.67193279  0.41852225  0.45598638     0.43200
H2690       H  0.69818990  0.03948768  0.46919871     0.38000
H2691       H  0.75839587  0.08894872  0.41954414     0.44100
H2692       H  0.75002398  0.07508955  0.30506431     0.40500
H2693       H  0.71964776  0.38426317  0.40030492     0.45400
H2694       H  0.72021673  0.06170128  0.47910983     0.44200
H2695       H  0.71952219  0.07681708  0.31304284     0.44300
H2696       H  0.70222554  0.45240151  0.26464825     0.44700
O2697       O  0.52281668  0.05288895  0.18499081    -0.74200
O2698       O  0.55581254  0.07914159  0.20954593    -0.53100
C2699       C  0.54785676  0.05856848  0.19188871     0.79500
O2700       O  0.94577560  0.15136157  0.16951687    -0.58800
O2701       O  0.91379721  0.14192135  0.20425519    -0.51800
C2702       C  0.92131419  0.14942335  0.17765662     0.71500
O2703       O  0.52556073  0.14625489  0.17064489    -0.73400
O2704       O  0.56090549  0.13188615  0.19845462    -0.53900
C2705       C  0.54981523  0.13799812  0.17306000     0.77500
O2706       O  0.92858275  0.05373800  0.19085691    -0.58500
O2707       O  0.90677041  0.08821910  0.22024569    -0.51600
C2708       C  0.90693806  0.06681256  0.20110089     0.74100
Zr2709     Zr  0.97914188  0.05863689  0.19924064     2.54700
O2710       O  0.97423345  0.03786528  0.14727167    -0.79100
O2711       O  0.97300263  0.01284172  0.22197808    -0.92500
Zr2712     Zr  0.98969151  0.14368360  0.19076752     2.64700
O2713       O  0.98839114  0.16376379  0.14039417    -0.97500
O2714       O  0.00339463  0.19354056  0.19809167    -0.79500
O2715       O  0.50429092  0.11451660  0.20455884    -0.82900
O2716       O  0.95967407  0.10492602  0.19590659    -2.17600
O2717       O  0.93824991  0.05774445  0.29302068    -0.66300
O2718       O  0.91254561  0.09486584  0.27901464    -0.50800
C2719       C  0.91493029  0.07028893  0.28961570     0.72500
O2720       O  0.54476687  0.17095263  0.29777011    -0.59200
O2721       O  0.56510534  0.13009965  0.28292246    -0.51100
C2722       C  0.56185450  0.15131777  0.30198044     0.74300
O2723       O  0.95589607  0.17895868  0.28333656    -0.70600
O2724       O  0.92104866  0.15018670  0.28340500    -0.49200
C2725       C  0.93632126  0.16846510  0.29753886     0.75700
O2726       O  0.53617462  0.06193903  0.30036858    -0.65900
O2727       O  0.56321519  0.08114407  0.26511984    -0.53100
C2728       C  0.55967735  0.06590966  0.28780745     0.74100
Zr2729     Zr  0.98797880  0.07105117  0.28827120     2.77500
O2730       O  0.98671799  0.08552217  0.34262049    -0.96600
O2731       O  0.98803099  0.02225506  0.30458062    -0.77500
Zr2732     Zr  0.99921756  0.15588562  0.28020097     2.70100
O2733       O  0.00286570  0.15847121  0.33581102    -0.78700
O2734       O  0.00857055  0.20703104  0.28356201    -0.97800
Zr2735     Zr  0.53601622  0.11392213  0.24118653     2.21500
Zr2736     Zr  0.93956689  0.11779260  0.24390438     2.11100
O2737       O  0.96880789  0.11764224  0.28812211    -2.46500
O2738       O  0.51183387  0.11729431  0.28449881    -0.78500
O2739       O  0.95758248  0.07026119  0.24622211    -0.70700
O2740       O  0.52004555  0.16144513  0.24478422    -2.31700
O2741       O  0.50864278  0.07201265  0.24372114    -2.27900
O2742       O  0.96866780  0.15705866  0.23769820    -0.72500
H2743       H  0.94699842  0.10269673  0.17921282     0.79500
H2744       H  0.53410907  0.17542721  0.24300790     0.80600
H2745       H  0.95920368  0.12078106  0.30706238     0.82800
H2746       H  0.51880162  0.05446024  0.24267283     0.80500
H2747       H  0.01808651  0.19589308  0.18334742     0.43500
H2748       H  0.02615338  0.20926196  0.29408877     0.42500
H2749       H  0.01669783  0.17323706  0.34064609     0.42100
H2750       H  0.96742404  0.08538497  0.34784033     0.40100
H2751       H  0.97818594  0.02323307  0.32417174     0.43200
H2752       H  0.45554501  0.02271792  0.22288863     0.38000
H2753       H  0.45838296  0.05589002  0.14296957     0.44100
H2754       H  0.00714366  0.16843505  0.13527755     0.40500
H2755       H  0.99438056  0.06914127  0.35305053     0.45400
H2756       H  0.99139283  0.00535815  0.22466300     0.44200
H2757       H  0.98350394  0.14761151  0.12586105     0.44300
H2758       H  0.01208839  0.21179837  0.26220600     0.44700
O2759       O  0.51099092  0.28664546  0.19057642    -0.74200
O2760       O  0.54113160  0.32100074  0.19401882    -0.53100
C2761       C  0.52992948  0.30011872  0.17874011     0.79500
O2762       O  0.92361170  0.42702934  0.16137959    -0.58800
O2763       O  0.88918913  0.40719189  0.18730367    -0.51800
C2764       C  0.89805190  0.42379260  0.16768895     0.71500
O2765       O  0.52200662  0.39955904  0.17145206    -0.73400
O2766       O  0.54821491  0.37311187  0.20196722    -0.53900
C2767       C  0.54545509  0.39090577  0.18112424     0.77500
O2768       O  0.90789435  0.31780912  0.18409297    -0.58500
O2769       O  0.88135842  0.35497902  0.18415805    -0.51600
C2770       C  0.89165146  0.33339283  0.16956155     0.74100
Zr2771     Zr  0.95683381  0.32213462  0.18340276     2.54700
O2772       O  0.96641020  0.32608127  0.12913337    -0.79100
O2773       O  0.94923762  0.27062945  0.17539778    -0.92500
Zr2774     Zr  0.96959703  0.40745712  0.17795410     2.64700
O2775       O  0.97174726  0.40074391  0.12241544    -0.97500
O2776       O  0.97756889  0.45834505  0.17444007    -0.79500
O2777       O  0.49008900  0.34793142  0.19251854    -0.82900
O2778       O  0.93876295  0.36898789  0.17858149    -2.17600
O2779       O  0.90391052  0.32629616  0.27006582    -0.66300
O2780       O  0.88160456  0.36651579  0.26423472    -0.50800
C2781       C  0.88703870  0.34502522  0.27993345     0.72500
O2782       O  0.51810974  0.41419477  0.28644684    -0.59200
O2783       O  0.54557019  0.38417802  0.25809353    -0.51100
C2784       C  0.54159128  0.40521512  0.27695593     0.74300
O2785       O  0.91978588  0.43316952  0.28422137    -0.70600
O2786       O  0.89757739  0.42557372  0.24009700    -0.49200
C2787       C  0.89766240  0.43322581  0.26826946     0.75700
O2788       O  0.50120153  0.32858837  0.31192651    -0.65900
O2789       O  0.53802325  0.33538564  0.28304810    -0.53100
C2790       C  0.52630004  0.33302236  0.30912127     0.74100
Zr2791     Zr  0.95223814  0.33296397  0.27275391     2.77500
O2792       O  0.93703824  0.32444800  0.32425098    -0.96600
O2793       O  0.95962703  0.28153466  0.27278003    -0.77500
Zr2794     Zr  0.96663552  0.41739373  0.26907322     2.70100
O2795       O  0.96922925  0.42825326  0.32403673    -0.78700
O2796       O  0.97033145  0.46721009  0.25700529    -0.97800
Zr2797     Zr  0.51784154  0.34983666  0.23405110     2.21500
Zr2798     Zr  0.91069797  0.37875698  0.22244408     2.11100
O2799       O  0.93450818  0.37964233  0.27065288    -2.46500
O2800       O  0.48729470  0.35894350  0.27107420    -0.78500
O2801       O  0.92808260  0.33136364  0.22601114    -0.70700
O2802       O  0.49743870  0.39598492  0.22847652    -2.31700
O2803       O  0.49213924  0.30737405  0.23754673    -2.27900
O2804       O  0.94249401  0.41722795  0.22177545    -0.72500
H2805       H  0.92867888  0.36950044  0.15973097     0.79500
H2806       H  0.51026081  0.41131135  0.22733015     0.80600
H2807       H  0.92371259  0.38315320  0.28855785     0.82800
H2808       H  0.50300119  0.29101700  0.24205927     0.80500
H2809       H  0.48755868  0.44250637  0.15382805     0.43500
H2810       H  0.98590139  0.46782782  0.24315054     0.42500
H2811       H  0.95952534  0.41233271  0.33300301     0.42100
H2812       H  0.94869130  0.30899234  0.33133974     0.40100
H2813       H  0.94748502  0.27337200  0.25654569     0.43200
H2814       H  0.93114168  0.26730386  0.18367285     0.38000
H2815       H  0.46690703  0.32108275  0.12830069     0.44100
H2816       H  0.98904630  0.39091939  0.11835347     0.40500
H2817       H  0.94243598  0.34168062  0.33691810     0.45400
H2818       H  0.96144627  0.26173384  0.19006965     0.44200
H2819       H  0.95790682  0.38618238  0.11684740     0.44300
H2820       H  0.95459390  0.47076614  0.24381775     0.44700
C2821       C  0.82105792  0.43447233  0.27923461     0.24700
C2822       C  0.81855023  0.44342238  0.31014847    -0.23400
C2823       C  0.84262080  0.45127419  0.32654128     0.19600
C2824       C  0.86791156  0.44943443  0.31273644     0.24600
C2825       C  0.87052419  0.43944770  0.28219014    -0.23400
C2826       C  0.84649309  0.43248623  0.26545847     0.19500
F2827       F  0.84733714  0.42281731  0.23567670    -0.13300
F2828       F  0.79895439  0.42719829  0.26224169    -0.15700
F2829       F  0.88994410  0.45703513  0.32971804    -0.15700
F2830       F  0.84215678  0.46093035  0.35638142    -0.13300
C2831       C  0.58782739  0.42219141  0.26700328     0.24700
C2832       C  0.56717184  0.41756743  0.28828204    -0.23400
C2833       C  0.57416293  0.41488597  0.31877124     0.19600
C2834       C  0.60091179  0.41728417  0.32803800     0.24600
C2835       C  0.62181332  0.42228198  0.30711670    -0.23400
C2836       C  0.61487392  0.42413497  0.27625186     0.19500
F2837       F  0.63402390  0.42929908  0.25537879    -0.13300
F2838       F  0.58166482  0.42439495  0.23699999    -0.15700
F2839       F  0.60595550  0.41639368  0.35820827    -0.15700
F2840       F  0.55517812  0.40888878  0.33955404    -0.13300
C2841       C  0.86130787  0.01928891  0.31818634     0.24700
C2842       C  0.83672597  0.03380041  0.31227175    -0.23400
C2843       C  0.83838907  0.05898523  0.29669851     0.19600
C2844       C  0.86351888  0.07009642  0.28879533     0.24600
C2845       C  0.88823826  0.05666298  0.29675864    -0.23400
C2846       C  0.88644093  0.03057213  0.31069906     0.19500
F2847       F  0.90900777  0.01602593  0.31773601    -0.13300
F2848       F  0.86134968  0.99415759  0.33218208    -0.15700
F2849       F  0.86326713  0.09447522  0.27342526    -0.15700
F2850       F  0.81578677  0.07371488  0.29022590    -0.13300
C2851       C  0.60957461  0.07160227  0.29727465     0.24700
C2852       C  0.58591322  0.05469072  0.29963138    -0.23400
C2853       C  0.58908728  0.02678432  0.30891266     0.19600
C2854       C  0.61481842  0.01646167  0.31622466     0.24600
C2855       C  0.63818795  0.03394866  0.31501125    -0.23400
C2856       C  0.63507290  0.06146300  0.30502537     0.19500
F2857       F  0.65655432  0.07918114  0.30407134    -0.13300
F2858       F  0.60828464  0.09851132  0.28755249    -0.15700
F2859       F  0.61683041  0.98911593  0.32464707    -0.15700
F2860       F  0.56754624  0.00915214  0.30991204    -0.13300
C2861       C  0.86315310  0.42795627  0.12632723     0.24700
C2862       C  0.87542890  0.43955819  0.15333601    -0.23400
C2863       C  0.85955339  0.45765692  0.17285538     0.19600
C2864       C  0.83219273  0.46275016  0.16645354     0.24600
C2865       C  0.81958916  0.44992610  0.14028887    -0.23400
C2866       C  0.83577375  0.43324710  0.11977121     0.19500
F2867       F  0.82484558  0.42147736  0.09353292    -0.13300
F2868       F  0.87735576  0.41019663  0.10701518    -0.15700
F2869       F  0.81798290  0.48042041  0.18590094    -0.15700
F2870       F  0.87026314  0.46908091  0.19940729    -0.13300
C2871       C  0.59702623  0.39084039  0.17842994     0.24700
C2872       C  0.57177531  0.40241546  0.16942549    -0.23400
C2873       C  0.57253503  0.42646203  0.15185686     0.19600
C2874       C  0.59704533  0.43968081  0.14549832     0.24600
C2875       C  0.62217457  0.42953579  0.15657888    -0.23400
C2876       C  0.62168622  0.40427882  0.17220952     0.19500
F2877       F  0.64491595  0.39321323  0.18275116    -0.13300
F2878       F  0.59808338  0.36678074  0.19427680    -0.15700
F2879       F  0.59578006  0.46306850  0.12858489    -0.15700
F2880       F  0.54942830  0.43806935  0.14158941    -0.13300
C2881       C  0.86249434  0.08169272  0.18159127     0.24700
C2882       C  0.87920008  0.05922565  0.19074364    -0.23400
C2883       C  0.86685330  0.03374975  0.19849547     0.19600
C2884       C  0.83879068  0.03052436  0.19562489     0.24600
C2885       C  0.82242054  0.05264850  0.18497533    -0.23400
C2886       C  0.83466150  0.07850778  0.17884840     0.19500
F2887       F  0.81983241  0.10014256  0.16808269    -0.13300
F2888       F  0.87321461  0.10728287  0.17570642    -0.15700
F2889       F  0.82757124  0.00508614  0.20158845    -0.15700
F2890       F  0.88178162  0.01227910  0.20939382    -0.13300
C2891       C  0.57929428  0.04942053  0.15033042     0.24700
C2892       C  0.57123295  0.04276413  0.17946434    -0.23400
C2893       C  0.59145013  0.03593753  0.20094375     0.19600
C2894       C  0.61889588  0.03894137  0.19435642     0.24600
C2895       C  0.62685303  0.04816896  0.16584971    -0.23400
C2896       C  0.60645619  0.05302892  0.14392532     0.19500
F2897       F  0.61298779  0.06006834  0.11532784    -0.13300
F2898       F  0.56067741  0.05457394  0.12859207    -0.15700
F2899       F  0.63757340  0.03237971  0.21559442    -0.15700
F2900       F  0.58436222  0.02921988  0.22956467    -0.13300
C2901       C  0.81814131  0.38551649  0.02176250     0.24700
C2902       C  0.80306434  0.36056704  0.02794214    -0.23400
C2903       C  0.77756756  0.36433424  0.04058946     0.19600
C2904       C  0.76671064  0.39186296  0.04482492     0.24600
C2905       C  0.78097835  0.41640191  0.03626297    -0.23400
C2906       C  0.80715371  0.41297421  0.02584370     0.19500
F2907       F  0.82183234  0.43603222  0.01871045    -0.13300
F2908       F  0.84368862  0.38353136  0.01130048    -0.15700
F2909       F  0.74196516  0.39449204  0.05743688    -0.15700
F2910       F  0.76266656  0.34144597  0.04775461    -0.13300
C2911       C  0.81375838  0.14165162  0.07805888     0.24700
C2912       C  0.80117771  0.15528241  0.05376928    -0.23400
C2913       C  0.78555863  0.13842304  0.03308668     0.19600
C2914       C  0.78451397  0.10873180  0.03468602     0.24600
C2915       C  0.79714959  0.09463801  0.05873704    -0.23400
C2916       C  0.81147133  0.11179968  0.08081981     0.19500
F2917       F  0.82404035  0.09971077  0.10446261    -0.13300
F2918       F  0.88066911  0.12540646  0.53629070    -0.15700
F2919       F  0.77095353  0.09385702  0.01210305    -0.15700
F2920       F  0.77370652  0.15044640  0.00887165    -0.13300
C2921       C  0.79270670  0.37972422  0.39718623     0.24700
C2922       C  0.78025814  0.39213225  0.42359322    -0.23400
C2923       C  0.77094830  0.37342477  0.44544672     0.19600
C2924       C  0.77528637  0.34373881  0.44175691     0.24600
C2925       C  0.79044509  0.33184403  0.41715233    -0.23400
C2926       C  0.79763281  0.35010741  0.39404245     0.19500
F2927       F  0.81186715  0.33955063  0.36963538    -0.13300
F2928       F  0.80039934  0.39620757  0.37430060    -0.15700
F2929       F  0.76736452  0.32694054  0.46430604    -0.15700
F2930       F  0.75849445  0.38391683  0.47118776    -0.13300
C2931       C  0.83735534  0.11559678  0.40736563     0.24700
C2932       C  0.83257607  0.13195946  0.43476156    -0.23400
C2933       C  0.82278497  0.11802297  0.45998256     0.19600
C2934       C  0.81700331  0.08880817  0.45788091     0.24600
C2935       C  0.82044776  0.07236751  0.43019113    -0.23400
C2936       C  0.83136146  0.08605403  0.40508840     0.19500
F2937       F  0.83525283  0.07118536  0.37798948    -0.13300
F2938       F  0.84781600  0.12807714  0.38288975    -0.15700
F2939       F  0.80732471  0.07673493  0.48303770    -0.15700
F2940       F  0.81870453  0.13297099  0.48702915    -0.13300
C2941       C  0.87003235  0.31614672  0.32098755     0.24700
C2942       C  0.87727320  0.34305337  0.31156010    -0.23400
C2943       C  0.88272879  0.36513451  0.33410193     0.19600
C2944       C  0.88453201  0.35917983  0.36527393     0.24600
C2945       C  0.88034473  0.33124269  0.37409374    -0.23400
C2946       C  0.87127518  0.31038852  0.35181225     0.19500
F2947       F  0.86527840  0.28353358  0.35954137    -0.13300
F2948       F  0.86410655  0.29457892  0.29997942    -0.15700
F2949       F  0.89267000  0.37991594  0.38615395    -0.15700
F2950       F  0.88920299  0.39164152  0.32583156    -0.13300
C2951       C  0.91598730  0.31916257  0.08908141     0.24700
C2952       C  0.89693180  0.33227243  0.07069939    -0.23400
C2953       C  0.87484176  0.34595357  0.08545089     0.19600
C2954       C  0.87239678  0.34639557  0.11769459     0.24600
C2955       C  0.89079518  0.33123517  0.13535352    -0.23400
C2956       C  0.91116867  0.31605573  0.11992416     0.19500
F2957       F  0.92548772  0.29618225  0.13405421    -0.13300
F2958       F  0.93800620  0.30618470  0.07667175    -0.15700
F2959       F  0.85131397  0.36018268  0.13130651    -0.15700
F2960       F  0.85526307  0.35803283  0.06886770    -0.13300
C2961       C  0.95267892  0.19182034  0.34716966     0.24700
C2962       C  0.93453985  0.17319347  0.33142997    -0.23400
C2963       C  0.91704994  0.15686944  0.34882498     0.19600
C2964       C  0.91669759  0.16052592  0.38090552     0.24600
C2965       C  0.93411849  0.18013389  0.39634941    -0.23400
C2966       C  0.95314489  0.19434968  0.37901954     0.19500
F2967       F  0.97101433  0.21276563  0.39278116    -0.13300
F2968       F  0.96995939  0.20816211  0.33188060    -0.15700
F2969       F  0.89849973  0.14580097  0.39666163    -0.15700
F2970       F  0.89996240  0.13759534  0.33492798    -0.13300
C2971       C  0.89519466  0.14643888  0.09745241     0.24700
C2972       C  0.88711911  0.17492114  0.09552789    -0.23400
C2973       C  0.88216467  0.19130558  0.12320617     0.19600
C2974       C  0.88951964  0.18111351  0.15157970     0.24600
C2975       C  0.90189348  0.15449787  0.15284339    -0.24600
C2976       C  0.90291124  0.13643170  0.12588379     0.19500
F2977       F  0.91386273  0.10995696  0.12673123    -0.13300
F2978       F  0.89803808  0.12920851  0.07172408    -0.15700
F2979       F  0.88721249  0.19842770  0.17734709    -0.15700
F2980       F  0.87167670  0.21801667  0.12274019    -0.13300
C2981       C  0.61677945  0.37062151  0.44252774     0.24700
C2982       C  0.62822085  0.34445688  0.43041269    -0.23400
C2983       C  0.64223643  0.34497467  0.40286984     0.19600
C2984       C  0.64677018  0.37093176  0.38937946     0.24600
C2985       C  0.63811597  0.39725314  0.40343018    -0.23400
C2986       C  0.62186684  0.39666170  0.42928599     0.19500
F2987       F  0.61246428  0.42132017  0.44305487    -0.13300
F2988       F  0.60108452  0.37140601  0.46781444    -0.15700
F2989       F  0.66111129  0.37052840  0.36312246    -0.15700
F2990       F  0.65271858  0.32064739  0.38962366    -0.13300
C2991       C  0.67680083  0.11141261  0.40460386     0.24700
C2992       C  0.66389217  0.08518243  0.41035033    -0.23400
C2993       C  0.63724907  0.08604040  0.41994463     0.19600
C2994       C  0.62463387  0.11230317  0.42644138     0.24600
C2995       C  0.63843509  0.13863226  0.42377766    -0.23400
C2996       C  0.66428453  0.13775621  0.41150092     0.19500
F2997       F  0.67830214  0.16222474  0.40829863    -0.13300
F2998       F  0.70218937  0.11180786  0.39353984    -0.15700
F2999       F  0.59921310  0.11170590  0.43726788    -0.15700
F3000       F  0.62389488  0.06156216  0.42516110    -0.13300
C3001       C  0.63649481  0.35561629  0.08657500     0.24700
C3002       C  0.61455881  0.35017963  0.06683859    -0.23400
C3003       C  0.59899314  0.37393161  0.05791607     0.19600
C3004       C  0.60745377  0.40195619  0.06481259     0.24600
C3005       C  0.63124375  0.40699622  0.08101755    -0.23400
C3006       C  0.64484607  0.38377246  0.09342091     0.19500
F3007       F  0.66776316  0.38822192  0.10995799    -0.13300
F3008       F  0.65124505  0.33386132  0.09717818    -0.15700
F3009       F  0.59415853  0.42387439  0.05243573    -0.15700
F3010       F  0.57657093  0.37038633  0.04029219    -0.13300
C3011       C  0.64891672  0.13945266  0.08517609     0.24700
C3012       C  0.64176082  0.14518651  0.05516244    -0.23400
C3013       C  0.63444717  0.12171841  0.03459114     0.19600
C3014       C  0.63610195  0.09363870  0.04321891     0.24600
C3015       C  0.64618775  0.08799019  0.07197963    -0.23400
C3016       C  0.65094191  0.11106373  0.09356013     0.19500
F3017       F  0.66167824  0.10590739  0.12131736    -0.13300
F3018       F  0.65640898  0.16097708  0.10544788    -0.15700
F3019       F  0.63183356  0.07194926  0.02180620    -0.15700
F3020       F  0.62660124  0.12556071  0.00531664    -0.13300
C3021       C  0.52860210  0.35238371  0.36314949     0.24700
C3022       C  0.54080240  0.33587620  0.33895565    -0.23400
C3023       C  0.56104611  0.31665862  0.34617761     0.19600
C3024       C  0.56661982  0.31162133  0.37689698     0.24600
C3025       C  0.55182719  0.32540831  0.40101869    -0.23400
C3026       C  0.53383630  0.34698394  0.39389505     0.19500
F3027       F  0.51931970  0.36070611  0.41632357    -0.13300
F3028       F  0.50926369  0.37164278  0.35681357    -0.15700
F3029       F  0.58447256  0.29076447  0.38275460    -0.15700
F3030       F  0.57297161  0.30010699  0.32374015    -0.13300
C3031       C  0.54577327  0.31616569  0.12784749     0.24700
C3032       C  0.53425124  0.29509591  0.14530015    -0.23400
C3033       C  0.52111925  0.27196443  0.12974761     0.19600
C3034       C  0.51684737  0.27161686  0.09821614     0.24600
C3035       C  0.52798271  0.29275064  0.08051756    -0.23400
C3036       C  0.54252289  0.31509487  0.09592019     0.19500
F3037       F  0.55331852  0.33630147  0.08026327    -0.13300
F3038       F  0.55967725  0.33824043  0.14158279    -0.15700
F3039       F  0.50249719  0.24967426  0.08508868    -0.15700
F3040       F  0.51149258  0.24984225  0.14518689    -0.13300
C3041       C  0.58373733  0.17685541  0.34582060     0.24700
C3042       C  0.57433005  0.15104685  0.33235843    -0.23400
C3043       C  0.56690989  0.12897224  0.35132404     0.19600
C3044       C  0.56352494  0.13471838  0.38276087     0.24600
C3045       C  0.56853760  0.16225063  0.39514467    -0.23400
C3046       C  0.58129289  0.18223124  0.37715844     0.19500
F3047       F  0.58792192  0.20859361  0.38931080    -0.13300
F3048       F  0.59133699  0.19837253  0.32822867    -0.15700
F3049       F  0.55199689  0.11485150  0.39986040    -0.15700
F3050       F  0.55795705  0.10368745  0.33898880    -0.13300
C3051       C  0.58313267  0.15313283  0.13523215     0.24700
C3052       C  0.56344761  0.13387707  0.14352079    -0.23400
C3053       C  0.54928881  0.11791844  0.12035938     0.19600
C3054       C  0.55254022  0.12338797  0.08954781     0.24600
C3055       C  0.57044771  0.14450334  0.08130065    -0.23400
C3056       C  0.58624607  0.15873618  0.10437132     0.19500
F3057       F  0.60159799  0.18128526  0.09774251    -0.13300
F3058       F  0.59626430  0.16967094  0.15700538    -0.15700
F3059       F  0.53590190  0.11056710  0.06829042    -0.15700
F3060       F  0.52914317  0.10023227  0.12804146    -0.13300
O3061       O  0.63458660  0.18896035  0.55250518    -0.74200
O3062       O  0.61328572  0.16023560  0.51669742    -0.53100
C3063       C  0.62896204  0.16389089  0.53938778     0.79500
O3064       O  0.52892952  0.28952412  0.53197686    -0.58800
O3065       O  0.55721206  0.32506507  0.53344006    -0.51800
C3066       C  0.53906835  0.31130327  0.54659419     0.71500
O3067       O  0.53227739  0.19163115  0.54382752    -0.73400
O3068       O  0.56648643  0.16267363  0.53511123    -0.53900
C3069       C  0.54865102  0.17317628  0.55326816     0.77500
O3070       O  0.64140814  0.29122060  0.55020237    -0.58500
O3071       O  0.60975857  0.32217517  0.53346763    -0.51600
C3072       C  0.63182970  0.31670239  0.54678844     0.74100
Zr3073     Zr  0.62431001  0.24078824  0.54185879     2.54700
O3074       O  0.62091633  0.24640077  0.59736837    -0.79100
O3075       O  0.67222495  0.23307722  0.54931368    -0.92500
Zr3076     Zr  0.54380378  0.24162845  0.54134707     2.64700
O3077       O  0.55336359  0.25035978  0.59584964    -0.97500
O3078       O  0.49838939  0.24031260  0.56107361    -0.79500
O3079       O  0.58386590  0.21869237  0.53497892    -0.82900
O3080       O  0.58420136  0.26860175  0.54346463    -2.17600
O3081       O  0.63084913  0.29995017  0.94161802    -0.66300
O3082       O  0.59791168  0.32301940  0.96890863    -0.50800
C3083       C  0.61750007  0.32296636  0.95026387     0.72500
O3084       O  0.57071817  0.18380287  0.91642945    -0.59200
O3085       O  0.59058168  0.15183314  0.94639747    -0.51100
C3086       C  0.58288409  0.16024961  0.92025870     0.74300
O3087       O  0.53844321  0.26644818  0.92156150    -0.70600
O3088       O  0.55189104  0.30638720  0.94934991    -0.49200
C3089       C  0.54363574  0.29324397  0.92433583     0.75700
O3090       O  0.65492523  0.20048097  0.93659602    -0.65900
O3091       O  0.63548847  0.16310078  0.95967331    -0.53100
C3092       C  0.65309617  0.17354903  0.94270881     0.74100
Zr3093     Zr  0.63083068  0.24714339  0.95138081     2.77500
O3094       O  0.63516944  0.24716390  0.89601908    -0.96600
O3095       O  0.67760467  0.26077288  0.95962326    -0.77500
Zr3096     Zr  0.55249209  0.22377444  0.94564452     2.70100
O3097       O  0.53192245  0.21503926  0.89523279    -0.78700
O3098       O  0.50796200  0.20653090  0.95762432    -0.97800
Zr3099     Zr  0.60210261  0.18404971  0.99022055     2.21500
Zr3100     Zr  0.58295790  0.29524210  0.49773621     2.11100
O3101       O  0.58547452  0.26052142  0.94777438    -2.46500
O3102       O  0.59675561  0.21468999  0.95308991    -0.78500
O3103       O  0.62083898  0.27375022  0.99794305    -0.70700
O3104       O  0.54063658  0.21203175  0.49459733    -2.31700
O3105       O  0.63577379  0.22137545  0.99550001    -2.27900
O3106       O  0.54112870  0.27023406  0.49771189    -0.72500
H3107       H  0.58451340  0.28132548  0.56158853     0.79500
H3108       H  0.52584982  0.19873929  0.49234505     0.80600
H3109       H  0.58621929  0.27112564  0.92962576     0.82800
H3110       H  0.65453837  0.21617683  0.99538712     0.80500
H3111       H  0.48912161  0.22547400  0.54790841     0.43500
H3112       H  0.49583726  0.21683257  0.94400250     0.42500
H3113       H  0.52196969  0.19683440  0.89617422     0.42100
H3114       H  0.65164648  0.25841559  0.89293293     0.40100
H3115       H  0.68802713  0.24326306  0.95418078     0.43200
H3116       H  0.68050702  0.25224509  0.54903125     0.38000
H3117       H  0.61849967  0.26719173  0.60179587     0.44100
H3118       H  0.53621313  0.24770445  0.60652441     0.40500
H3119       H  0.62042009  0.25957818  0.88933149     0.45400
H3120       H  0.67823178  0.22296626  0.53010832     0.44200
H3121       H  0.56476475  0.23414532  0.60145715     0.44300
H3122       H  0.50747977  0.18646960  0.94925656     0.44700
O3123       O  0.91386714  0.23421149  0.55794084    -0.74200
O3124       O  0.90737366  0.19040211  0.53467606    -0.53100
C3125       C  0.91194718  0.20706864  0.55877675     0.79500
O3126       O  0.81392146  0.29971425  0.53776686    -0.58800
O3127       O  0.81601732  0.31483713  0.49102488    -0.51800
C3128       C  0.81219368  0.32029476  0.51912802     0.71500
O3129       O  0.83394031  0.19965593  0.54727385    -0.73400
O3130       O  0.83440329  0.17170751  0.02428319    -0.53900
C3131       C  0.84632879  0.17539194  0.54093726     0.77500
O3132       O  0.90236037  0.32048991  0.54338880    -0.58500
O3133       O  0.87087379  0.34272438  0.51509714    -0.51600
C3134       C  0.88564660  0.34076216  0.53930122     0.74100
Zr3135     Zr  0.91039638  0.27198849  0.52324916     2.54700
O3136       O  0.93347442  0.28334328  0.57174094    -0.79100
O3137       O  0.95718599  0.27986560  0.51034303    -0.92500
Zr3138     Zr  0.83198613  0.24937475  0.52622393     2.64700
O3139       O  0.82811321  0.25440598  0.58167452    -0.97500
O3140       O  0.78468908  0.23812923  0.51809906    -0.79500
O3141       O  0.87658978  0.23903624  0.52062070    -0.82900
O3142       O  0.86495401  0.28544203  0.52238072    -2.17600
O3143       O  0.91080667  0.28259203  0.91447996    -0.66300
O3144       O  0.88980526  0.32165188  0.93608307    -0.50800
C3145       C  0.90085425  0.30781073  0.91314020     0.72500
O3146       O  0.83122510  0.18718322  0.91698279    -0.59200
O3147       O  0.82992082  0.16903528  0.96278495    -0.51100
C3148       C  0.83134012  0.16540832  0.93396589     0.74300
O3149       O  0.80950443  0.28787750  0.92386654    -0.70600
O3150       O  0.84109089  0.32148340  0.93719521    -0.49200
C3151       C  0.81860592  0.31396127  0.92552814     0.75700
O3152       O  0.91900143  0.19373568  0.94120219    -0.65900
O3153       O  0.88521142  0.16497062  0.95077724    -0.53100
C3154       C  0.90182887  0.17513804  0.93190748     0.74100
Zr3155     Zr  0.90914771  0.24381631  0.94918867     2.77500
O3156       O  0.94030185  0.23445561  0.90670871    -0.96600
O3157       O  0.95052966  0.25988379  0.97452141    -0.77500
Zr3158     Zr  0.82783924  0.23917769  0.93464443     2.70100
O3159       O  0.83212001  0.23929843  0.87921210    -0.78700
O3160       O  0.78019424  0.22841233  0.92816849    -0.97800
Zr3161     Zr  0.86353339  0.19481245  0.99193718     2.21500
Zr3162     Zr  0.86428095  0.30131090  0.97761853     2.11100
O3163       O  0.86756011  0.26601895  0.93660708    -2.46500
O3164       O  0.86811429  0.22164980  0.95096232    -0.78500
O3165       O  0.90526605  0.27832091  0.98983573    -0.70700
O3166       O  0.82179663  0.21960356  0.98308187    -2.31700
O3167       O  0.90486286  0.22059905  0.99646084    -2.27900
O3168       O  0.82294815  0.27457629  0.97532703    -0.72500
H3169       H  0.86100157  0.29716940  0.54029361     0.79500
H3170       H  0.80597294  0.20773340  0.98297087     0.80600
H3171       H  0.86593868  0.27342943  0.91667795     0.82800
H3172       H  0.91996352  0.20852718  0.00087477     0.80500
H3173       H  0.78387038  0.21699622  0.51750932     0.43500
H3174       H  0.77624815  0.21334548  0.94243753     0.42500
H3175       H  0.83043285  0.25960449  0.87435826     0.42100
H3176       H  0.95326062  0.22016075  0.91368290     0.40100
H3177       H  0.95768287  0.27463037  0.96142573     0.43200
H3178       H  0.96182836  0.29837015  0.52110762     0.38000
H3179       H  0.91927802  0.28954997  0.58635874     0.44100
H3180       H  0.84258627  0.26791196  0.58823855     0.40500
H3181       H  0.95125583  0.25199216  0.90568681     0.45400
H3182       H  0.95704095  0.28408208  0.48847983     0.44200
H3183       H  0.81132816  0.26534272  0.58530604     0.44300
H3184       H  0.77093708  0.24561758  0.93700905     0.44700
O3185       O  0.68428838  0.05136175  0.65005415    -0.74200
O3186       O  0.66207236  0.02441566  0.61274988    -0.53100
C3187       C  0.66254464  0.04252212  0.63553624     0.79500
O3188       O  0.79182836  0.06446701  0.56275670    -0.58800
O3189       O  0.82075451  0.04451454  0.59604399    -0.51800
C3190       C  0.81341668  0.06497983  0.57872427     0.71500
O3191       O  0.70953422  0.06358890  0.55654944    -0.73400
O3192       O  0.67484154  0.03274378  0.55986030    -0.53900
C3193       C  0.68455131  0.05803276  0.55707156     0.77500
O3194       O  0.77977362  0.05964241  0.66731255    -0.58500
O3195       O  0.79837087  0.01698056  0.66390966    -0.51600
C3196       C  0.80050536  0.04339645  0.67038799     0.74100
Zr3197     Zr  0.73449629  0.04212950  0.64788243     2.54700
O3198       O  0.72793159  0.09345521  0.65595200    -0.79100
O3199       O  0.72843766  0.03406982  0.70179182    -0.92500
Zr3200     Zr  0.75059236  0.03789388  0.55736575     2.64700
O3201       O  0.74771597  0.08236103  0.53095026    -0.97500
O3202       O  0.75977818  0.02342700  0.50441657    -0.79500
O3203       O  0.72272315  0.03307400  0.59780884    -0.82900
O3204       O  0.76706073  0.04308471  0.60835456    -2.17600
O3205       O  0.77461646  0.44884640  0.65457601    -0.66300
O3206       O  0.80049358  0.47284765  0.62145143    -0.50800
C3207       C  0.79788763  0.45671736  0.64370996     0.72500
O3208       O  0.67446971  0.44424059  0.53729816    -0.59200
O3209       O  0.65190141  0.45147943  0.58061469    -0.51100
C3210       C  0.65908087  0.43507214  0.55752268     0.74300
O3211       O  0.76166613  0.43680387  0.53663684    -0.70600
O3212       O  0.79458179  0.46045934  0.56395166    -0.49200
C3213       C  0.78556669  0.43877867  0.54724356     0.75700
O3214       O  0.67540546  0.44102782  0.65690577    -0.65900
O3215       O  0.64594619  0.46869894  0.63194953    -0.53100
C3216       C  0.65088701  0.44958824  0.65055873     0.74100
Zr3217     Zr  0.72411910  0.45445894  0.64273906     2.77500
O3218       O  0.72613631  0.40247462  0.63991672    -0.96600
O3219       O  0.72553518  0.45551623  0.69842696    -0.77500
Zr3220     Zr  0.71929400  0.45829872  0.55019450     2.70100
O3221       O  0.71815475  0.40637581  0.54943560    -0.78700
O3222       O  0.72248022  0.45536459  0.49504192    -0.97800
Zr3223     Zr  0.67187609  0.49688262  0.60184718     2.21500
Zr3224     Zr  0.79472100  0.00146094  0.61132911     2.11100
O3225       O  0.74584213  0.45665710  0.59482048    -2.46500
O3226       O  0.70127753  0.46054374  0.59799324    -0.78500
O3227       O  0.76251078  0.00141361  0.65240900    -0.70700
O3228       O  0.72505587  0.99529027  0.54678113    -2.31700
O3229       O  0.69771031  0.49622242  0.64882367    -2.27900
O3230       O  0.77961223  0.99811892  0.55965570    -0.72500
H3231       H  0.77562558  0.06122022  0.61283545     0.79500
H3232       H  0.71596322  0.99435216  0.52718400     0.80600
H3233       H  0.75717192  0.44009782  0.59400128     0.82800
H3234       H  0.68674139  0.49530013  0.66682755     0.80500
H3235       H  0.77886025  0.02853147  0.50180942     0.43500
H3236       H  0.72488991  0.43465149  0.49015539     0.42500
H3237       H  0.71866418  0.40186262  0.57124469     0.42100
H3238       H  0.71095001  0.39633840  0.62639920     0.40100
H3239       H  0.71991450  0.47512275  0.70512533     0.43200
H3240       H  0.72112081  0.05232920  0.71063234     0.38000
H3241       H  0.74245527  0.10204565  0.64419235     0.44100
H3242       H  0.75378728  0.09761682  0.54599913     0.40500
H3243       H  0.74236266  0.39769121  0.62781295     0.45400
H3244       H  0.74692629  0.03322144  0.71010602     0.44200
H3245       H  0.76197729  0.08115713  0.51532047     0.44300
H3246       H  0.74012667  0.46390722  0.49077598     0.44700
O3247       O  0.72484623  0.06575967  0.92522608    -0.74200
O3248       O  0.68654993  0.04066335  0.91388427    -0.53100
C3249       C  0.69943802  0.06391187  0.92266403     0.79500
O3250       O  0.78884078  0.03455796  0.80070315    -0.58800
O3251       O  0.82249146  0.01100806  0.82469350    -0.51800
C3252       C  0.81389150  0.02669677  0.80406337     0.71500
O3253       O  0.69314367  0.03630107  0.81861089    -0.73400
O3254       O  0.66926065  0.01680370  0.85654054    -0.53900
C3255       C  0.67047207  0.03027423  0.83188085     0.77500
O3256       O  0.81019510  0.03833293  0.92354989    -0.58500
O3257       O  0.82960518  0.02900193  0.87847087    -0.51600
C3258       C  0.82598874  0.04550147  0.90257991     0.74100
Zr3259     Zr  0.76225044  0.03534199  0.91689275     2.54700
O3260       O  0.77525628  0.08547725  0.91978947    -0.79100
O3261       O  0.76159813  0.03718846  0.97232886    -0.92500
Zr3262     Zr  0.74337597  0.02765745  0.82594363     2.64700
O3263       O  0.74367194  0.07966539  0.82913496    -0.97500
O3264       O  0.73707932  0.02660769  0.77077210    -0.79500
O3265       O  0.72904489  0.03360667  0.87752247    -0.82900
O3266       O  0.77647562  0.03085804  0.86542991    -2.17600
O3267       O  0.75607349  0.43048913  0.94335750    -0.66300
O3268       O  0.79074918  0.44814671  0.91718388    -0.50800
C3269       C  0.77952534  0.42816358  0.93208460     0.72500
O3270       O  0.67658150  0.42398219  0.83390826    -0.59200
O3271       O  0.65309721  0.46474388  0.83404235    -0.51100
C3272       C  0.65387723  0.43779777  0.83252248     0.74300
O3273       O  0.77528151  0.43291673  0.82769806    -0.70600
O3274       O  0.80098432  0.45902868  0.86210766    -0.49200
C3275       C  0.79861344  0.44114008  0.83955430     0.75700
O3276       O  0.67267267  0.43760365  0.93597485    -0.65900
O3277       O  0.64648909  0.45315780  0.89760230    -0.53100
C3278       C  0.65236454  0.43528274  0.91815678     0.74100
Zr3279     Zr  0.71673122  0.45620303  0.92930244     2.77500
O3280       O  0.70498246  0.40813460  0.94321734    -0.96600
O3281       O  0.72258247  0.47275472  0.98243467    -0.77500
Zr3282     Zr  0.72471473  0.44275184  0.83713714     2.70100
O3283       O  0.72831894  0.39115573  0.82823740    -0.78700
O3284       O  0.72180406  0.44723298  0.78202865    -0.97800
Zr3285     Zr  0.67207278  0.49249383  0.87513230     2.21500
Zr3286     Zr  0.77177569  0.48874786  0.88925641     2.11100
O3287       O  0.74459156  0.44671433  0.88610824    -2.46500
O3288       O  0.70107127  0.45614196  0.88042988    -0.78500
O3289       O  0.74515013  0.49694404  0.93306441    -0.70700
O3290       O  0.70004769  0.48516835  0.83020268    -2.31700
O3291       O  0.69080861  0.49861826  0.92513422    -2.27900
O3292       O  0.75232662  0.48362932  0.83865300    -0.72500
H3293       H  0.78726911  0.04723600  0.86124348     0.79500
H3294       H  0.69041830  0.48339764  0.81096733     0.80600
H3295       H  0.75378645  0.42866878  0.88605785     0.82800
H3296       H  0.67726575  0.50139090  0.94068770     0.80500
H3297       H  0.74672062  0.00920519  0.76309701     0.43500
H3298       H  0.74068443  0.44856775  0.77538184     0.42500
H3299       H  0.71870488  0.38316947  0.84552636     0.42100
H3300       H  0.71430860  0.39518410  0.92812397     0.40100
H3301       H  0.74202719  0.47653479  0.98503936     0.43200
H3302       H  0.75406550  0.05631790  0.97749933     0.38000
H3303       H  0.77276092  0.09160904  0.89866400     0.44100
H3304       H  0.75612791  0.08492379  0.81285616     0.40500
H3305       H  0.71431504  0.40530958  0.96279083     0.45400
H3306       H  0.78070360  0.03874621  0.97854647     0.44200
H3307       H  0.72571670  0.08517358  0.82163855     0.44300
H3308       H  0.71570328  0.42822708  0.77374250     0.44700
O3309       O  0.53062098  0.06225726  0.66341946    -0.74200
O3310       O  0.56144750  0.08181360  0.69741062    -0.53100
C3311       C  0.55509300  0.06650509  0.67353181     0.79500
O3312       O  0.94675823  0.18464916  0.69355986    -0.58800
O3313       O  0.91652577  0.15018428  0.69644774    -0.51800
C3314       C  0.92636805  0.17116219  0.68263407     0.71500
O3315       O  0.53264234  0.17533176  0.69926545    -0.73400
O3316       O  0.55906746  0.13727492  0.69486952    -0.53900
C3317       C  0.54951498  0.15997984  0.68400122     0.77500
O3318       O  0.93413167  0.06603037  0.67843563    -0.58500
O3319       O  0.90894543  0.09953754  0.70518736    -0.51600
C3320       C  0.91129557  0.07769477  0.68683832     0.74100
Zr3321     Zr  0.98406657  0.07640679  0.68538782     2.54700
O3322       O  0.97874237  0.07333780  0.62999997    -0.79100
O3323       O  0.98343822  0.02460200  0.68766614    -0.92500
Zr3324     Zr  0.99073067  0.16323378  0.69317543     2.64700
O3325       O  0.99029064  0.15456786  0.63772993    -0.97500
O3326       O  0.98875726  0.21194515  0.67655004    -0.79500
O3327       O  0.51003943  0.11843507  0.69153060    -0.82900
O3328       O  0.96325393  0.12189874  0.68936175    -2.17600
O3329       O  0.94024457  0.05921887  0.78053627    -0.66300
O3330       O  0.91321632  0.09267442  0.76019883    -0.50800
C3331       C  0.91667788  0.07006434  0.77419788     0.72500
O3332       O  0.53474582  0.13168068  0.81469655    -0.59200
O3333       O  0.56604858  0.12772563  0.77722480    -0.51100
C3334       C  0.55896459  0.12895250  0.80547406     0.74300
O3335       O  0.95120631  0.16472440  0.81096573    -0.70600
O3336       O  0.91655548  0.14831413  0.78081132    -0.49200
C3337       C  0.92630418  0.15876149  0.80647875     0.75700
O3338       O  0.54101499  0.05319428  0.78773322    -0.65900
O3339       O  0.56764228  0.07753567  0.75637269    -0.53100
C3340       C  0.56473881  0.06121772  0.77840130     0.74100
Zr3341     Zr  0.98967163  0.07358023  0.77513599     2.77500
O3342       O  0.98928323  0.07580272  0.83086543    -0.96600
O3343       O  0.98939650  0.02163245  0.77566185    -0.77500
Zr3344     Zr  0.99326252  0.15932824  0.78324660     2.70100
O3345       O  0.99963651  0.17979663  0.83521240    -0.78700
O3346       O  0.00199995  0.21015119  0.77976124    -0.97800
Zr3347     Zr  0.53808844  0.11016023  0.73429858     2.21500
Zr3348     Zr  0.93990937  0.12495981  0.73668224     2.11100
O3349       O  0.96607993  0.11776321  0.78155091    -2.46500
O3350       O  0.51166821  0.10175373  0.77439461    -0.78500
O3351       O  0.96073989  0.07837974  0.73212890    -0.70700
O3352       O  0.51584548  0.15362006  0.74945181    -2.31700
O3353       O  0.51335130  0.06662641  0.72388796    -2.27900
O3354       O  0.96584951  0.16727418  0.73993025    -0.72500
H3355       H  0.95155011  0.12233708  0.67185108     0.79500
H3356       H  0.52826456  0.16909727  0.75418407     0.80600
H3357       H  0.95547014  0.11543898  0.79954560     0.82800
H3358       H  0.52497680  0.05055988  0.71907284     0.80500
H3359       H  0.98036622  0.21033752  0.65592752     0.43500
H3360       H  0.99618251  0.21451662  0.75885303     0.42500
H3361       H  0.99623592  0.16385255  0.84860360     0.42100
H3362       H  0.97002055  0.07661858  0.83622140     0.40100
H3363       H  0.00763622  0.01558842  0.76927319     0.43200
H3364       H  0.47283215  0.02809979  0.64095421     0.38000
H3365       H  0.50037574  0.10025490  0.62661863     0.44100
H3366       H  0.00080033  0.13682151  0.63389250     0.40500
H3367       H  0.99507662  0.05651469  0.83631885     0.45400
H3368       H  0.97641104  0.02120509  0.70824728     0.44200
H3369       H  0.97168588  0.14903179  0.63224495     0.44300
H3370       H  0.98844211  0.21953892  0.79333554     0.44700
O3371       O  0.49960234  0.30681558  0.68545485    -0.74200
O3372       O  0.53330782  0.33708334  0.69496554    -0.53100
C3373       C  0.52078750  0.31893542  0.67697002     0.79500
O3374       O  0.92904621  0.43517735  0.68467277    -0.58800
O3375       O  0.89580255  0.41212142  0.70954549    -0.51800
C3376       C  0.90362607  0.43076316  0.69160147     0.71500
O3377       O  0.52508005  0.41866850  0.68876306    -0.73400
O3378       O  0.54935687  0.38678748  0.71484596    -0.53900
C3379       C  0.54773234  0.40674348  0.69621985     0.77500
O3380       O  0.92079318  0.33585711  0.65717716    -0.58500
O3381       O  0.89347000  0.36502816  0.68667016    -0.51600
C3382       C  0.90050096  0.35243609  0.66091309     0.74100
Zr3383     Zr  0.96361116  0.33142228  0.68235189     2.54700
O3384       O  0.97337492  0.33919312  0.62898733    -0.79100
O3385       O  0.95090084  0.28305011  0.66482490    -0.92500
Zr3386     Zr  0.97687642  0.41647622  0.69833474     2.64700
O3387       O  0.97888428  0.43064457  0.64571859    -0.97500
O3388       O  0.98440927  0.46512227  0.71838709    -0.79500
O3389       O  0.48824684  0.37046953  0.70251098    -0.82900
O3390       O  0.94712200  0.37832161  0.69076122    -2.17600
O3391       O  0.91154618  0.31638932  0.77335261    -0.66300
O3392       O  0.89106346  0.35836447  0.77419899    -0.50800
C3393       C  0.89652640  0.33503114  0.78687429     0.72500
O3394       O  0.52414512  0.41274481  0.80955983    -0.59200
O3395       O  0.54789586  0.38370324  0.77614313    -0.51100
C3396       C  0.54636914  0.40081467  0.79973704     0.74300
O3397       O  0.92854751  0.41905408  0.80519684    -0.70600
O3398       O  0.90734496  0.42075561  0.76043261    -0.49200
C3399       C  0.90670215  0.42224135  0.78926825     0.75700
O3400       O  0.49896437  0.33431493  0.81449671    -0.65900
O3401       O  0.53446906  0.33357240  0.78230543    -0.53100
C3402       C  0.52409643  0.33238707  0.80906309     0.74100
Zr3403     Zr  0.95989003  0.32062847  0.76960355     2.77500
O3404       O  0.95266182  0.29725492  0.81718319    -0.96600
O3405       O  0.96416561  0.27048082  0.75257383    -0.77500
Zr3406     Zr  0.97571411  0.40596263  0.78782544     2.70100
O3407       O  0.97829967  0.39672080  0.84194041    -0.78700
O3408       O  0.97937153  0.45675865  0.80158608    -0.97800
Zr3409     Zr  0.51619926  0.36188470  0.74188547     2.21500
Zr3410     Zr  0.91921527  0.37716102  0.73410725     2.11100
O3411       O  0.94415746  0.36789796  0.77950025    -2.46500
O3412       O  0.48660306  0.36819996  0.78031895    -0.78500
O3413       O  0.93439604  0.32921705  0.72483391    -0.70700
O3414       O  0.50154759  0.41084209  0.74811144    -2.31700
O3415       O  0.48532472  0.32278412  0.73967051    -2.27900
O3416       O  0.95055076  0.41595530  0.74304514    -0.72500
H3417       H  0.93775049  0.38401582  0.67303000     0.79500
H3418       H  0.51645974  0.42400374  0.74981325     0.80600
H3419       H  0.93419460  0.36811925  0.79818537     0.82800
H3420       H  0.49402135  0.30434597  0.73931474     0.80500
H3421       H  0.50670103  0.46752804  0.71927435     0.43500
H3422       H  0.96175576  0.46463864  0.79571830     0.42500
H3423       H  0.96034618  0.38928403  0.84687414     0.42100
H3424       H  0.94472161  0.31215581  0.83125266     0.40100
H3425       H  0.97323512  0.26174156  0.76991293     0.43200
H3426       H  0.94794656  0.28401556  0.64249990     0.38000
H3427       H  0.47099445  0.35403477  0.63746331     0.44100
H3428       H  0.99005276  0.44815057  0.64680577     0.40500
H3429       H  0.93809122  0.28327824  0.81267986     0.45400
H3430       H  0.93276042  0.28040134  0.67325024     0.44200
H3431       H  0.99017506  0.41594131  0.63499597     0.44300
H3432       H  0.97930970  0.45798084  0.82424339     0.44700
C3433       C  0.82977828  0.41960138  0.79807112     0.24700
C3434       C  0.82596542  0.43207313  0.82751123    -0.23400
C3435       C  0.84964701  0.43990226  0.84496705     0.19600
C3436       C  0.87549367  0.43647874  0.83295081     0.24600
C3437       C  0.87915561  0.42541630  0.80305214    -0.23400
C3438       C  0.85585666  0.41629139  0.78602391     0.19500
F3439       F  0.85812183  0.40378789  0.75746053    -0.13300
F3440       F  0.80831396  0.41149655  0.78041038    -0.15700
F3441       F  0.89697522  0.44460714  0.85062439    -0.15700
F3442       F  0.84823576  0.45185434  0.87392731    -0.13300
C3443       C  0.59511700  0.38840663  0.80950515     0.24700
C3444       C  0.57289908  0.40708635  0.81498161    -0.23400
C3445       C  0.57756577  0.43299789  0.83145599     0.19600
C3446       C  0.60376446  0.44135443  0.83937100     0.24600
C3447       C  0.62644509  0.42446205  0.83010504    -0.23400
C3448       C  0.62158459  0.39716275  0.81664313     0.19500
F3449       F  0.64233576  0.37955379  0.80887086    -0.13300
F3450       F  0.59137839  0.36187674  0.79607106    -0.15700
F3451       F  0.60678951  0.46695198  0.85516475    -0.15700
F3452       F  0.55703861  0.45128043  0.83821551    -0.13300
C3453       C  0.85812141  0.01816404  0.77895168     0.24700
C3454       C  0.83643402  0.03711955  0.78585827    -0.23400
C3455       C  0.84157733  0.06631681  0.78756538     0.19600
C3456       C  0.86791530  0.07633296  0.78630524     0.24600
C3457       C  0.89013652  0.05740289  0.78165571    -0.23400
C3458       C  0.88469737  0.02814914  0.77723554     0.19500
F3459       F  0.90487664  0.00932515  0.77093104    -0.13300
F3460       F  0.85360010  0.98960956  0.77567906    -0.15700
F3461       F  0.87163474  0.10503512  0.79000446    -0.15700
F3462       F  0.82131523  0.08518048  0.79327317    -0.13300
C3463       C  0.61575939  0.06690618  0.78505121     0.24700
C3464       C  0.59142226  0.05306631  0.79321152    -0.23400
C3465       C  0.59372160  0.03246048  0.81523182     0.19600
C3466       C  0.61909112  0.02517050  0.82750609     0.24600
C3467       C  0.64338131  0.03829712  0.81835468    -0.23400
C3468       C  0.64099459  0.05940999  0.79703716     0.19500
F3469       F  0.66311537  0.07360251  0.78818865    -0.13300
F3470       F  0.61550168  0.08861032  0.76575046    -0.15700
F3471       F  0.61966253  0.00482197  0.84836240    -0.15700
F3472       F  0.57142345  0.01931962  0.82515102    -0.13300
C3473       C  0.87327027  0.44104627  0.64714902     0.24700
C3474       C  0.87962595  0.44543314  0.67833469    -0.23400
C3475       C  0.85810781  0.45322771  0.69832575     0.19600
C3476       C  0.83128584  0.45498767  0.68777732     0.24600
C3477       C  0.82478064  0.44873418  0.65686258    -0.23400
C3478       C  0.84641595  0.44222292  0.63665189     0.19500
F3479       F  0.84151373  0.43705039  0.60627835    -0.13300
F3480       F  0.89297708  0.43454626  0.62681663    -0.15700
F3481       F  0.81179036  0.46353530  0.70774423    -0.15700
F3482       F  0.86300396  0.45780767  0.72875524    -0.13300
C3483       C  0.59882603  0.40227755  0.68934806     0.24700
C3484       C  0.57417742  0.41669358  0.68373781    -0.23400
C3485       C  0.57549952  0.44146770  0.66744384     0.19600
C3486       C  0.60013368  0.45198793  0.65781978     0.24600
C3487       C  0.62510838  0.43801584  0.66370442    -0.23400
C3488       C  0.62378675  0.41278408  0.67945976     0.19500
F3489       F  0.64649738  0.39780893  0.68469783    -0.13300
F3490       F  0.59897819  0.37761033  0.70418103    -0.15700
F3491       F  0.59893069  0.47632186  0.64237929    -0.15700
F3492       F  0.55282544  0.45604116  0.66078316    -0.13300
C3493       C  0.86566833  0.08492649  0.66493333     0.24700
C3494       C  0.88468199  0.06604048  0.67697564    -0.23400
C3495       C  0.87513501  0.04109266  0.68946464     0.19600
C3496       C  0.84747240  0.03508884  0.68962083     0.24600
C3497       C  0.82847744  0.05375361  0.67697057    -0.23400
C3498       C  0.83803332  0.07884945  0.66486055     0.19500
F3499       F  0.82068749  0.09735571  0.65248391    -0.13300
F3500       F  0.87386684  0.11015378  0.65443167    -0.15700
F3501       F  0.83915420  0.01100423  0.70261472    -0.15700
F3502       F  0.89244234  0.02339508  0.70326525    -0.13300
C3503       C  0.58947520  0.06546337  0.63247573     0.24700
C3504       C  0.57915253  0.05365717  0.65865683    -0.23400
C3505       C  0.59693180  0.03873625  0.67735826     0.19600
C3506       C  0.62450776  0.03735061  0.67119339     0.24600
C3507       C  0.63520012  0.05076310  0.64612693    -0.23400
C3508       C  0.61715000  0.06405887  0.62631368     0.19500
F3509       F  0.62636763  0.07604748  0.60106386    -0.13300
F3510       F  0.57298000  0.07975684  0.61381517    -0.15700
F3511       F  0.64076015  0.02228674  0.68939932    -0.15700
F3512       F  0.58765323  0.02694291  0.70289140    -0.13300
C3513       C  0.81623921  0.37311467  0.50868976     0.24700
C3514       C  0.80847752  0.35162732  0.52877753    -0.23400
C3515       C  0.79805672  0.36097633  0.55732133     0.19600
C3516       C  0.79475749  0.39034896  0.56504336     0.24600
C3517       C  0.80054590  0.41134947  0.54403764    -0.23400
C3518       C  0.81173201  0.40231235  0.51597499     0.19500
F3519       F  0.81704432  0.42167002  0.49485398    -0.13300
F3520       F  0.82788758  0.36610353  0.48138423    -0.15700
F3521       F  0.78384914  0.39812322  0.59249934    -0.15700
F3522       F  0.79001028  0.34175130  0.57741686    -0.13300
C3523       C  0.85788994  0.12403793  0.55291901     0.24700
C3524       C  0.84081931  0.14841847  0.55751976    -0.23400
C3525       C  0.81779170  0.14509246  0.57527214     0.19600
C3526       C  0.81102618  0.11811522  0.58575360     0.24600
C3527       C  0.82694881  0.09349296  0.57884237    -0.23400
C3528       C  0.85101997  0.09715803  0.56346683     0.19500
F3529       F  0.86676658  0.07420597  0.55611509    -0.13300
F3530       F  0.82960492  0.15709305  0.09812173    -0.15700
F3531       F  0.78736564  0.11545324  0.60051855    -0.15700
F3532       F  0.80060626  0.16726642  0.58049555    -0.13300
C3533       C  0.80833453  0.38901371  0.90727428     0.24700
C3534       C  0.79032747  0.39814755  0.93043685    -0.23400
C3535       C  0.77743627  0.37663154  0.94660920     0.19600
C3536       C  0.78280333  0.34754341  0.94013883     0.24600
C3537       C  0.80213226  0.33888956  0.91846892    -0.23400
C3538       C  0.81404442  0.35993463  0.90128133     0.19500
F3539       F  0.83309122  0.35238652  0.88033272    -0.13300
F3540       F  0.82079273  0.40816171  0.89043428    -0.15700
F3541       F  0.77118128  0.32791548  0.95750746    -0.15700
F3542       F  0.75994834  0.38358335  0.96942258    -0.13300
C3543       C  0.83156814  0.12480995  0.89166547     0.24700
C3544       C  0.83538370  0.13484140  0.92234307    -0.23400
C3545       C  0.84337840  0.11460525  0.94366520     0.19600
C3546       C  0.84418524  0.08547018  0.93561186     0.24600
C3547       C  0.83708829  0.07505845  0.90608968    -0.23400
C3548       C  0.83238133  0.09509171  0.88364193     0.19500
F3549       F  0.82595133  0.08580550  0.85467497    -0.13300
F3550       F  0.82548936  0.14335689  0.86991815    -0.15700
F3551       F  0.84963341  0.06704752  0.95773681    -0.15700
F3552       F  0.84959137  0.12262216  0.97319657    -0.13300
C3553       C  0.88571665  0.30297423  0.82810359     0.24700
C3554       C  0.88991883  0.33086606  0.81945053    -0.23400
C3555       C  0.89488810  0.35242475  0.84279216     0.19600
C3556       C  0.89779475  0.34568984  0.87362626     0.24600
C3557       C  0.89647876  0.31715403  0.88149764    -0.23400
C3558       C  0.88908026  0.29617153  0.85843782     0.19500
F3559       F  0.88549185  0.26850856  0.86494366    -0.13300
F3560       F  0.88035836  0.28162840  0.80665031    -0.15700
F3561       F  0.90346058  0.36674750  0.89526749    -0.15700
F3562       F  0.89934006  0.37960765  0.83574632    -0.13300
C3563       C  0.90072838  0.37488261  0.58047784     0.24700
C3564       C  0.87998372  0.35795633  0.56786548    -0.23400
C3565       C  0.86145538  0.34627406  0.58823673     0.19600
C3566       C  0.86572152  0.34801219  0.61991178     0.24600
C3567       C  0.88873524  0.36121059  0.63188465    -0.23400
C3568       C  0.90541196  0.37605517  0.61204528     0.19500
F3569       F  0.92828533  0.38892110  0.62248473    -0.13300
F3570       F  0.91926657  0.38600986  0.56193460    -0.15700
F3571       F  0.84982417  0.33279043  0.63811055    -0.15700
F3572       F  0.84226382  0.32807527  0.57774119    -0.13300
C3573       C  0.90838205  0.13719967  0.85303091     0.24700
C3574       C  0.90964254  0.16094534  0.83448646    -0.23400
C3575       C  0.90292648  0.18792469  0.84754625     0.19600
C3576       C  0.89747353  0.19151665  0.87890168     0.24600
C3577       C  0.89981850  0.16854373  0.89822511    -0.23400
C3578       C  0.90358939  0.14098046  0.88474283     0.19500
F3579       F  0.90487241  0.11816091  0.90246917    -0.13300
F3580       F  0.91460067  0.11071134  0.84104023    -0.15700
F3581       F  0.89115482  0.21793183  0.89082800    -0.15700
F3582       F  0.90376144  0.21118489  0.83043135    -0.13300
C3583       C  0.91651119  0.16704824  0.59621333     0.24700
C3584       C  0.91331507  0.19612016  0.59046032    -0.23400
C3585       C  0.91005931  0.21573523  0.61614193     0.19600
C3586       C  0.91249182  0.20710570  0.64604131     0.24600
C3587       C  0.91665717  0.17843468  0.65177481    -0.24600
C3588       C  0.91748004  0.15822717  0.62653610     0.19500
F3589       F  0.92117581  0.13011079  0.63098348    -0.13300
F3590       F  0.91991528  0.14728905  0.57274552    -0.15700
F3591       F  0.91120284  0.22709874  0.66965639    -0.15700
F3592       F  0.90439144  0.24369935  0.61271865    -0.13300
C3593       C  0.61023256  0.37694377  0.94977298     0.24700
C3594       C  0.62422735  0.35192510  0.93863217    -0.23400
C3595       C  0.64436023  0.35548111  0.91679882     0.19600
C3596       C  0.65087182  0.38285930  0.90738009     0.24600
C3597       C  0.63798706  0.40763912  0.91987620    -0.23400
C3598       C  0.61740949  0.40430138  0.94090682     0.19500
F3599       F  0.60524840  0.42766517  0.95429226    -0.13300
F3600       F  0.59015420  0.37542747  0.97041805    -0.15700
F3601       F  0.67145310  0.38545466  0.88758588    -0.15700
F3602       F  0.65859095  0.33268722  0.90534145    -0.13300
C3603       C  0.69509692  0.11034438  0.95273288     0.24700
C3604       C  0.68602811  0.09199291  0.92813045    -0.23400
C3605       C  0.67127972  0.10402323  0.90455463     0.19600
C3606       C  0.66478244  0.13329794  0.90630336     0.24600
C3607       C  0.67215790  0.15115600  0.93188201    -0.23400
C3608       C  0.68821454  0.13936696  0.95461153     0.19500
F3609       F  0.69527842  0.15552012  0.98015267    -0.13300
F3610       F  0.71079827  0.10006349  0.97512096    -0.15700
F3611       F  0.65038976  0.14409371  0.88338175    -0.15700
F3612       F  0.66398587  0.08770274  0.87926757    -0.13300
C3613       C  0.65990714  0.35591986  0.53129108     0.24700
C3614       C  0.64697881  0.34298809  0.55529157    -0.23400
C3615       C  0.63840791  0.36050404  0.58045508     0.19600
C3616       C  0.64088813  0.39040900  0.58057299     0.24600
C3617       C  0.65288384  0.40362530  0.55591781    -0.23400
C3618       C  0.66277214  0.38562519  0.53146637     0.19500
F3619       F  0.67502527  0.39657597  0.50717453    -0.13300
F3620       F  0.66759367  0.33983771  0.50608025    -0.15700
F3621       F  0.63082243  0.40632113  0.60453793    -0.15700
F3622       F  0.62624945  0.34867672  0.60430629    -0.13300
C3623       C  0.66293315  0.13520686  0.56834785     0.24700
C3624       C  0.64068214  0.13624453  0.54880041    -0.23400
C3625       C  0.63050647  0.10979177  0.53534569     0.19600
C3626       C  0.64400335  0.08400945  0.53866444     0.24600
C3627       C  0.66732248  0.08361392  0.55633066    -0.23400
C3628       C  0.67589950  0.10914753  0.57233893     0.19500
F3629       F  0.69741262  0.10891647  0.59155781    -0.13300
F3630       F  0.67283346  0.15940278  0.58268586    -0.15700
F3631       F  0.63478612  0.05974928  0.52369048    -0.15700
F3632       F  0.60772202  0.10862253  0.51804614    -0.13300
C3633       C  0.53654031  0.34635919  0.86242079     0.24700
C3634       C  0.54060094  0.32800671  0.83617099    -0.23400
C3635       C  0.55139959  0.30095100  0.83951503     0.19600
C3636       C  0.55380630  0.29061886  0.86862115     0.24600
C3637       C  0.54514812  0.30720843  0.89485242    -0.23400
C3638       C  0.53890889  0.33603021  0.89175918     0.19500
F3639       F  0.53298081  0.35340650  0.91662140    -0.13300
F3640       F  0.52722741  0.37326475  0.85945693    -0.15700
F3641       F  0.56341589  0.26368425  0.87089124    -0.15700
F3642       F  0.55618613  0.28315929  0.81457987    -0.13300
C3643       C  0.55053791  0.32800135  0.63184835     0.24700
C3644       C  0.52800410  0.31469665  0.64408510    -0.23400
C3645       C  0.50918931  0.30142525  0.62350531     0.19600
C3646       C  0.51140729  0.30392196  0.59216129     0.24600
C3647       C  0.53429631  0.31586037  0.57985469    -0.23400
C3648       C  0.55387579  0.32809042  0.59998566     0.19500
F3649       F  0.57624770  0.34001863  0.58887094    -0.13300
F3650       F  0.56937481  0.34074062  0.65056556    -0.15700
F3651       F  0.49075378  0.29499006  0.57370343    -0.15700
F3652       F  0.48782116  0.28666297  0.63344477    -0.13300
C3653       C  0.59428688  0.15194030  0.83719487     0.24700
C3654       C  0.57872535  0.12766008  0.83027908    -0.23400
C3655       C  0.57317936  0.10887570  0.85359085     0.19600
C3656       C  0.57832687  0.11725822  0.88427369     0.24600
C3657       C  0.58929230  0.14427436  0.89145796    -0.23400
C3658       C  0.59920913  0.16042628  0.86771252     0.19500
F3659       F  0.61046075  0.18648168  0.87432225    -0.13300
F3660       F  0.60012589  0.17020517  0.81516573    -0.15700
F3661       F  0.56861037  0.10129605  0.90665023    -0.15700
F3662       F  0.55821333  0.08507091  0.84716065    -0.13300
C3663       C  0.57000809  0.14812486  0.63177005     0.24700
C3664       C  0.55385070  0.16582317  0.65125641    -0.23400
C3665       C  0.53701264  0.18568285  0.63783853     0.19600
C3666       C  0.53309476  0.18482201  0.60643052     0.24600
C3667       C  0.54923406  0.16777358  0.58656127    -0.23400
C3668       C  0.56809987  0.14946881  0.59967878     0.19500
F3669       F  0.58419546  0.13245897  0.58165749    -0.13300
F3670       F  0.58777597  0.12980295  0.64374985    -0.15700
F3671       F  0.51296450  0.20090016  0.59575335    -0.15700
F3672       F  0.52274421  0.20515899  0.65510721    -0.13300
O3673       O  0.63205490  0.69679441  0.05773075    -0.74200
O3674       O  0.60647417  0.67177509  0.02234877    -0.53100
C3675       C  0.62142162  0.67326421  0.04602608     0.79500
O3676       O  0.55069879  0.81919289  0.03803330    -0.58800
O3677       O  0.58878786  0.84306298  0.03876597    -0.51800
C3678       C  0.56710775  0.83628394  0.05217932     0.71500
O3679       O  0.53257882  0.72342218  0.04750554    -0.73400
O3680       O  0.56109943  0.68762111  0.03594163    -0.53900
C3681       C  0.54425516  0.70030176  0.05422651     0.77500
O3682       O  0.65794110  0.79411562  0.05939369    -0.58500
O3683       O  0.63670702  0.83098880  0.03685540    -0.51600
C3684       C  0.65447250  0.82092223  0.05438873     0.74100
Zr3685     Zr  0.63395995  0.74832728  0.04501101     2.54700
O3686       O  0.62595272  0.75399611  0.09986370    -0.79100
O3687       O  0.68010855  0.73501607  0.05598366    -0.92500
Zr3688     Zr  0.55509003  0.76742390  0.03739996     2.64700
O3689       O  0.56151488  0.76691074  0.09278761    -0.97500
O3690       O  0.50709630  0.77566858  0.04261942    -0.79500
O3691       O  0.58909388  0.73236840  0.03958311    -0.82900
O3692       O  0.60002420  0.78373991  0.04299646    -2.17600
O3693       O  0.64722873  0.78832114  0.43014045    -0.66300
O3694       O  0.64802415  0.80889115  0.47667152    -0.50800
C3695       C  0.65039872  0.81081199  0.44816285     0.72500
O3696       O  0.54002106  0.72379690  0.42356123    -0.59200
O3697       O  0.55609482  0.68366196  0.44419800    -0.51100
C3698       C  0.54717182  0.69757747  0.42169515     0.74300
O3699       O  0.55918887  0.81132241  0.43142659    -0.70600
O3700       O  0.59027714  0.83818327  0.45858309    -0.49200
C3701       C  0.57492266  0.83305819  0.43520407     0.75700
O3702       O  0.62541733  0.69060337  0.42617966    -0.65900
O3703       O  0.59826975  0.66624866  0.45708754    -0.53100
C3704       C  0.61379568  0.66728822  0.43417491     0.74100
Zr3705     Zr  0.62932424  0.74182505  0.44655516     2.77500
O3706       O  0.63229236  0.73678355  0.39097448    -0.96600
O3707       O  0.67673724  0.73114846  0.45325966    -0.77500
Zr3708     Zr  0.55105350  0.76570967  0.45463527     2.70100
O3709       O  0.52461832  0.77178261  0.40846082    -0.78700
O3710       O  0.50841408  0.77886894  0.47824569    -0.97800
Zr3711     Zr  0.57929988  0.70164626  0.49081232     2.21500
Zr3712     Zr  0.60825381  0.81021774  0.99910925     2.11100
O3713       O  0.59662831  0.77891133  0.45063121    -2.46500
O3714       O  0.58503483  0.73299869  0.45459210    -0.78500
O3715       O  0.63793792  0.76973805  0.49292469    -0.70700
O3716       O  0.55032670  0.73895150  0.99048846    -2.31700
O3717       O  0.62578310  0.71523128  0.49086863    -2.27900
O3718       O  0.56281807  0.79502204  0.99401316    -0.72500
H3719       H  0.60202092  0.79595327  0.06132957     0.79500
H3720       H  0.53313893  0.72952070  0.98814091     0.80600
H3721       H  0.59974284  0.78838192  0.43216408     0.82800
H3722       H  0.63751534  0.69880668  0.48944730     0.80500
H3723       H  0.49874909  0.76361645  0.02584778     0.43500
H3724       H  0.50631268  0.79945120  0.47478382     0.42500
H3725       H  0.51389278  0.78928285  0.41297977     0.42100
H3726       H  0.62554801  0.75510686  0.38371548     0.40100
H3727       H  0.68442240  0.73208537  0.43254830     0.43200
H3728       H  0.68489343  0.72097909  0.03916675     0.38000
H3729       H  0.62331035  0.73434007  0.10646470     0.44100
H3730       H  0.56840373  0.74753903  0.09618827     0.40500
H3731       H  0.65177623  0.73701910  0.38674304     0.45400
H3732       H  0.67894857  0.72362973  0.07432208     0.44200
H3733       H  0.57701118  0.77937991  0.09814179     0.44300
H3734       H  0.49473803  0.76929214  0.46477000     0.44700
O3735       O  0.89567800  0.69288465  0.06852581    -0.74200
O3736       O  0.87366933  0.65930621  0.03834385    -0.53100
C3737       C  0.88294699  0.66922787  0.06434380     0.79500
O3738       O  0.82434669  0.80948612  0.03880318    -0.58800
O3739       O  0.85898781  0.83052373  0.01475892    -0.51800
C3740       C  0.83730980  0.83178934  0.03012125     0.71500
O3741       O  0.80571851  0.70937837  0.04806703    -0.73400
O3742       O  0.83822812  0.66368824  0.54407966    -0.53900
C3743       C  0.80897956  0.68171091  0.04326182     0.77500
O3744       O  0.93437715  0.77785806  0.03949478    -0.58500
O3745       O  0.91165896  0.81712137  0.03269832    -0.51600
C3746       C  0.92618661  0.80213121  0.04997458     0.74100
Zr3747     Zr  0.90744866  0.73531352  0.04298333     2.54700
O3748       O  0.90219823  0.74630005  0.09749200    -0.79100
O3749       O  0.95133324  0.71556410  0.05482833    -0.92500
Zr3750     Zr  0.82905982  0.75570131  0.03452765     2.64700
O3751       O  0.82682721  0.76518509  0.08976014    -0.97500
O3752       O  0.78096577  0.76455374  0.03255651    -0.79500
O3753       O  0.86248229  0.72023959  0.03915977    -0.82900
O3754       O  0.87444092  0.77184765  0.03884976    -2.17600
O3755       O  0.91492746  0.75685663  0.41866411    -0.66300
O3756       O  0.90648087  0.79869905  0.44570874    -0.50800
C3757       C  0.91166939  0.78399734  0.42046916     0.72500
O3758       O  0.81452893  0.68538404  0.44290942    -0.59200
O3759       O  0.82027764  0.66356119  0.48659998    -0.51100
C3760       C  0.81375441  0.66261536  0.45869425     0.74300
O3761       O  0.82697826  0.78795699  0.44058513    -0.70600
O3762       O  0.86059569  0.81443738  0.46341638    -0.49200
C3763       C  0.84048558  0.81176349  0.44555136     0.75700
O3764       O  0.88716331  0.67626345  0.42471254    -0.65900
O3765       O  0.87046853  0.64648878  0.45901196    -0.53100
C3766       C  0.87590937  0.65301533  0.43144039     0.74100
Zr3767     Zr  0.90734960  0.71719580  0.45047134     2.77500
O3768       O  0.92914790  0.70156857  0.40267506    -0.96600
O3769       O  0.95291375  0.70167548  0.46140763    -0.77500
Zr3770     Zr  0.82835971  0.73666574  0.45739449     2.70100
O3771       O  0.81722427  0.73395586  0.40303234    -0.78700
O3772       O  0.78101738  0.74572318  0.46801560    -0.97800
Zr3773     Zr  0.86260041  0.68051484  0.50326592     2.21500
Zr3774     Zr  0.88488017  0.78366951  0.49310604     2.11100
O3775       O  0.87266728  0.75222043  0.45060442    -2.46500
O3776       O  0.86421963  0.70653972  0.46178187    -0.78500
O3777       O  0.92041564  0.74976520  0.49116771    -0.70700
O3778       O  0.82687589  0.71558252  0.50526996    -2.31700
O3779       O  0.90831929  0.69298468  0.49696895    -2.27900
O3780       O  0.83896249  0.76911706  0.49952559    -0.72500
H3781       H  0.87566539  0.78563921  0.05602595     0.79500
H3782       H  0.80910630  0.70805582  0.50801803     0.80600
H3783       H  0.87024500  0.76106153  0.43148606     0.82800
H3784       H  0.91995444  0.67649162  0.49678685     0.80500
H3785       H  0.77630776  0.76270381  0.01050573     0.43500
H3786       H  0.77695094  0.73613241  0.48700311     0.42500
H3787       H  0.83066555  0.74623290  0.39362600     0.42100
H3788       H  0.94514222  0.71394494  0.40121826     0.40100
H3789       H  0.95336982  0.68123019  0.45435798     0.43200
H3790       H  0.95232831  0.69724058  0.04250871     0.38000
H3791       H  0.88264966  0.74839640  0.10049298     0.44100
H3792       H  0.83088108  0.74667633  0.09853423     0.40500
H3793       H  0.91693698  0.70748233  0.38623439     0.45400
H3794       H  0.94990695  0.70989083  0.07621536     0.44200
H3795       H  0.84252968  0.77741303  0.09516922     0.44300
H3796       H  0.78018844  0.76637597  0.47407067     0.44700
O3797       O  0.67065120  0.54992706  0.17642837    -0.74200
O3798       O  0.63841924  0.52316365  0.15072679    -0.53100
C3799       C  0.64596238  0.54045011  0.17239945     0.79500
O3800       O  0.73872780  0.56894314  0.04175432    -0.58800
O3801       O  0.77534505  0.55033207  0.06412621    -0.51800
C3802       C  0.76300225  0.57088544  0.05098644     0.71500
O3803       O  0.66879817  0.56894587  0.09837114    -0.73400
O3804       O  0.63345193  0.54030773  0.09307797    -0.53900
C3805       C  0.64384736  0.56550692  0.09384992     0.77500
O3806       O  0.76791258  0.54578649  0.16107674    -0.58500
O3807       O  0.78993006  0.53109342  0.11769051    -0.51600
C3808       C  0.78986791  0.54141864  0.14513359     0.74100
Zr3809     Zr  0.71715906  0.54162973  0.15213823     2.54700
O3810       O  0.71726445  0.59366378  0.15302620    -0.79100
O3811       O  0.72498927  0.54408606  0.20712543    -0.92500
Zr3812     Zr  0.69997486  0.54735276  0.06289993     2.64700
O3813       O  0.69735862  0.59724853  0.04963767    -0.97500
O3814       O  0.67007839  0.54634069  0.01829321    -0.79500
O3815       O  0.68930994  0.53666038  0.11104051    -0.82900
O3816       O  0.73350626  0.54715468  0.10173145    -2.17600
O3817       O  0.77931326  0.94912443  0.15939073    -0.66300
O3818       O  0.80733884  0.97855351  0.13475527    -0.50800
C3819       C  0.80340708  0.95845674  0.15257181     0.72500
O3820       O  0.69138435  0.94362148  0.03764316    -0.59200
O3821       O  0.66481829  0.95220061  0.07757857    -0.51100
C3822       C  0.67544979  0.93478412  0.05744409     0.74300
O3823       O  0.77841786  0.94829315  0.03915920    -0.70600
O3824       O  0.80597416  0.96662356  0.07691534    -0.49200
C3825       C  0.79965860  0.94748563  0.05558909     0.75700
O3826       O  0.67900555  0.94989218  0.15800017    -0.65900
O3827       O  0.65113674  0.97368712  0.12644246    -0.53100
C3828       C  0.65492412  0.95757816  0.14840897     0.74100
Zr3829     Zr  0.72954929  0.95882956  0.14545600     2.77500
O3830       O  0.72980837  0.90698032  0.13791358    -0.96600
O3831       O  0.72916430  0.95592286  0.20084950    -0.77500
Zr3832     Zr  0.73382205  0.96336489  0.05260407     2.70100
O3833       O  0.74181439  0.91242409  0.04365701    -0.78700
O3834       O  0.73103545  0.97287581  0.99887276    -0.97800
Zr3835     Zr  0.68102638  0.99914248  0.09791191     2.21500
Zr3836     Zr  0.75879240  0.50551493  0.08664949     2.11100
O3837       O  0.75573752  0.96234024  0.10061412    -2.46500
O3838       O  0.71120235  0.96358612  0.09789156    -0.78500
O3839       O  0.74347322  0.50081150  0.13851471    -0.70700
O3840       O  0.67369690  0.50481682  0.05890869    -2.31700
O3841       O  0.70202096  0.00001030  0.14785554    -2.27900
O3842       O  0.72687018  0.50734923  0.04601902    -0.72500
H3843       H  0.74370503  0.56465721  0.10321004     0.79500
H3844       H  0.65781233  0.50556082  0.04624273     0.80600
H3845       H  0.76718146  0.94583237  0.10046366     0.82800
H3846       H  0.68968208  0.99939529  0.16466669     0.80500
H3847       H  0.66791900  0.56631867  0.01252642     0.43500
H3848       H  0.71185921  0.97081665  0.99313990     0.42500
H3849       H  0.74193193  0.90483722  0.06432539     0.42100
H3850       H  0.72307601  0.90005918  0.15739406     0.40100
H3851       H  0.73225350  0.93546196  0.20421126     0.43200
H3852       H  0.71351261  0.52875994  0.21457094     0.38000
H3853       H  0.71047456  0.59836634  0.13259128     0.44100
H3854       H  0.67816971  0.60252995  0.05078824     0.40500
H3855       H  0.71519720  0.90262561  0.12292466     0.45400
H3856       H  0.71615009  0.56203257  0.21462285     0.44200
H3857       H  0.70577106  0.60824150  0.06716700     0.44300
H3858       H  0.73451639  0.99365346  0.99894631     0.44700
O3859       O  0.67360070  0.55628444  0.41522231    -0.74200
O3860       O  0.63996012  0.53064309  0.39202615    -0.53100
C3861       C  0.64992079  0.55421809  0.40386451     0.79500
O3862       O  0.77245610  0.53177803  0.32239682    -0.58800
O3863       O  0.79742489  0.50901817  0.35791867    -0.51800
C3864       C  0.79541326  0.52431864  0.33486958     0.71500
O3865       O  0.67461027  0.54334381  0.31413583    -0.73400
O3866       O  0.64245813  0.51581600  0.33511069    -0.53900
C3867       C  0.64968736  0.53543339  0.31791666     0.77500
O3868       O  0.75333628  0.55288755  0.43079995    -0.58500
O3869       O  0.78799265  0.52474468  0.41366033    -0.51600
C3870       C  0.77809110  0.54882276  0.42463550     0.74100
Zr3871     Zr  0.71228683  0.52675587  0.42376685     2.54700
O3872       O  0.71300523  0.56829108  0.45999577    -0.79100
O3873       O  0.70759263  0.50576526  0.47277225    -0.92500
Zr3874     Zr  0.72127781  0.52716776  0.33070774     2.64700
O3875       O  0.72719528  0.57879197  0.33237163    -0.97500
O3876       O  0.72493849  0.52374516  0.27524554    -0.79500
O3877       O  0.69256390  0.52927464  0.37446510    -0.82900
O3878       O  0.74043714  0.52589631  0.37999397    -2.17600
O3879       O  0.78207147  0.92590107  0.43642024    -0.66300
O3880       O  0.81260092  0.94427229  0.40459813    -0.50800
C3881       C  0.80396138  0.92444789  0.42143772     0.72500
O3882       O  0.68413505  0.92665319  0.32961973    -0.59200
O3883       O  0.65869409  0.95745097  0.35953887    -0.51100
C3884       C  0.66114101  0.93612966  0.34059056     0.74300
O3885       O  0.78106011  0.92741238  0.31848400    -0.70600
O3886       O  0.81129267  0.95627822  0.34505545    -0.49200
C3887       C  0.80517334  0.93691059  0.32474132     0.75700
O3888       O  0.70188879  0.91788153  0.41604252    -0.65900
O3889       O  0.66670016  0.94807149  0.41306489    -0.53100
C3890       C  0.67673641  0.92275503  0.41576190     0.74100
Zr3891     Zr  0.73910641  0.94800972  0.42960992     2.77500
O3892       O  0.74918923  0.90537823  0.45734631    -0.96600
O3893       O  0.71875838  0.95579474  0.47965650    -0.77500
Zr3894     Zr  0.73410085  0.93878306  0.33640158     2.70100
O3895       O  0.73408584  0.88735653  0.34178247    -0.78700
O3896       O  0.73001304  0.93316219  0.28088810    -0.97800
Zr3897     Zr  0.68861795  0.98766684  0.38632702     2.21500
Zr3898     Zr  0.78802790  0.98406803  0.38209525     2.11100
O3899       O  0.76088211  0.94238387  0.38164390    -2.46500
O3900       O  0.71359570  0.94519631  0.38423101    -0.78500
O3901       O  0.76686655  0.98921579  0.43049523    -0.70700
O3902       O  0.70988603  0.98197425  0.33696507    -2.31700
O3903       O  0.71354197  0.99108720  0.43274703    -2.27900
O3904       O  0.76213038  0.97980810  0.33533074    -0.72500
H3905       H  0.75162655  0.54244763  0.37874867     0.79500
H3906       H  0.69700113  0.98016348  0.32039469     0.80600
H3907       H  0.77104943  0.92494325  0.37979295     0.82800
H3908       H  0.70149793  0.99311204  0.44986411     0.80500
H3909       H  0.71060380  0.51023503  0.26827566     0.43500
H3910       H  0.74323092  0.94676346  0.27322304     0.42500
H3911       H  0.73388242  0.87895126  0.32052483     0.42100
H3912       H  0.74522257  0.91008612  0.47914018     0.40100
H3913       H  0.70146193  0.94542180  0.47775900     0.43200
H3914       H  0.68886739  0.50950088  0.47905061     0.38000
H3915       H  0.69409244  0.57283457  0.46493809     0.44100
H3916       H  0.71270107  0.58580035  0.31913432     0.40500
H3917       H  0.73545772  0.89107856  0.45060325     0.45400
H3918       H  0.71901319  0.51754538  0.48712079     0.44200
H3919       H  0.72190958  0.58528179  0.35337966     0.44300
H3920       H  0.73772980  0.91408310  0.27552496     0.44700
O3921       O  0.51696177  0.55568328  0.19078305    -0.74200
O3922       O  0.53336223  0.59982760  0.19241630    -0.53100
C3923       C  0.53724043  0.57322208  0.19082599     0.79500
O3924       O  0.90314575  0.66097000  0.19217026    -0.58800
O3925       O  0.88277105  0.61956577  0.20173035    -0.51800
C3926       C  0.88619565  0.64107856  0.18522236     0.71500
O3927       O  0.49332483  0.66013175  0.16810642    -0.73400
O3928       O  0.53110615  0.65202653  0.19598423    -0.53900
C3929       C  0.51876781  0.66074487  0.17211558     0.77500
O3930       O  0.92091492  0.55690727  0.17583200    -0.58500
O3931       O  0.90237229  0.55833928  0.22173206    -0.51600
C3932       C  0.90002660  0.55485605  0.19308030     0.74100
Zr3933     Zr  0.96772559  0.57219693  0.19181511     2.54700
O3934       O  0.97092640  0.57267335  0.13640021    -0.79100
O3935       O  0.97098406  0.52046570  0.19213682    -0.92500
Zr3936     Zr  0.95138804  0.65705021  0.19999254     2.64700
O3937       O  0.94343776  0.66542813  0.14617723    -0.97500
O3938       O  0.94974143  0.70876912  0.20899660    -0.79500
O3939       O  0.48096764  0.61270210  0.20061906    -0.82900
O3940       O  0.93534687  0.60962192  0.19574420    -2.17600
O3941       O  0.92594643  0.54976105  0.29691332    -0.66300
O3942       O  0.89104913  0.57249500  0.27403728    -0.50800
C3943       C  0.90023940  0.55381287  0.29139756     0.72500
O3944       O  0.50720440  0.67985965  0.29645672    -0.59200
O3945       O  0.53726652  0.64714017  0.27809196    -0.51100
C3946       C  0.52928361  0.66608176  0.29825215     0.74300
O3947       O  0.91551928  0.64896772  0.31618121    -0.70600
O3948       O  0.88527455  0.62289275  0.28674763    -0.49200
C3949       C  0.89333435  0.63512770  0.31234939     0.75700
O3950       O  0.52322668  0.56927351  0.29540216    -0.65900
O3951       O  0.54661013  0.59586204  0.26198120    -0.53100
C3952       C  0.54544924  0.57827803  0.28334493     0.74100
Zr3953     Zr  0.97177516  0.57124207  0.28292383     2.77500
O3954       O  0.97202438  0.57617964  0.33860933    -0.96600
O3955       O  0.98150422  0.52074339  0.28598072    -0.77500
Zr3956     Zr  0.95656160  0.65697534  0.28793857     2.70100
O3957       O  0.95683164  0.68218065  0.33820467    -0.78700
O3958       O  0.95031216  0.70678930  0.27603942    -0.97800
Zr3959     Zr  0.51331724  0.62238360  0.23596345     2.21500
Zr3960     Zr  0.91215451  0.60476791  0.24303389     2.11100
O3961       O  0.94101264  0.60908699  0.28596292    -2.46500
O3962       O  0.49214902  0.62091458  0.28389257    -0.78500
O3963       O  0.94434398  0.56645574  0.23839860    -0.70700
O3964       O  0.48418876  0.66231244  0.23788185    -2.31700
O3965       O  0.49537742  0.57503559  0.24173340    -2.27900
O3966       O  0.92658521  0.65324493  0.24564481    -0.72500
H3967       H  0.92477034  0.60761525  0.17733122     0.79500
H3968       H  0.49361962  0.68007918  0.23567070     0.80600
H3969       H  0.93219424  0.60428234  0.30429555     0.82800
H3970       H  0.50890792  0.56039128  0.24229280     0.80500
H3971       H  0.93284347  0.71451536  0.19899591     0.43500
H3972       H  0.93383038  0.71309111  0.28694568     0.42500
H3973       H  0.94281062  0.69706185  0.33725138     0.42100
H3974       H  0.98980944  0.56900753  0.34483658     0.40100
H3975       H  0.99739038  0.51744614  0.27280776     0.43200
H3976       H  0.45757389  0.51167276  0.22206442     0.38000
H3977       H  0.45795101  0.57585694  0.13554524     0.44100
H3978       H  0.93330983  0.64850613  0.13796012     0.40500
H3979       H  0.97264890  0.59703898  0.34355027     0.45400
H3980       H  0.99050133  0.51657668  0.19152668     0.44200
H3981       H  0.93045084  0.68141010  0.14603905     0.44300
H3982       H  0.96507801  0.71728751  0.28695339     0.44700
O3983       O  0.54798960  0.82044186  0.19545216    -0.74200
O3984       O  0.56731629  0.86241607  0.20260205    -0.53100
C3985       C  0.56101879  0.84085396  0.18478815     0.79500
O3986       O  0.93112018  0.92169457  0.18642453    -0.58800
O3987       O  0.90476771  0.89164497  0.21227838    -0.51800
C3988       C  0.90762194  0.91252852  0.19511924     0.71500
O3989       O  0.52678594  0.92717137  0.18958582    -0.73400
O3990       O  0.56055183  0.91009956  0.21898383    -0.53900
C3991       C  0.55201231  0.92621332  0.19871170     0.77500
O3992       O  0.94293591  0.80565712  0.19610500    -0.58500
O3993       O  0.90946228  0.83546773  0.19739158    -0.51600
C3994       C  0.92328249  0.81676887  0.18231246     0.74100
Zr3995     Zr  0.98759660  0.82363642  0.18872197     2.54700
O3996       O  0.97766104  0.83354837  0.13566792    -0.79100
O3997       O  0.99103487  0.77323055  0.17149478    -0.92500
Zr3998     Zr  0.98102446  0.91016084  0.19352379     2.64700
O3999       O  0.98012522  0.90553396  0.13779271    -0.97500
O4000       O  0.97714064  0.96146321  0.19003037    -0.79500
O4001       O  0.51052312  0.86869481  0.20799133    -0.82900
O4002       O  0.95940366  0.86498235  0.19172089    -2.17600
O4003       O  0.94810848  0.81483610  0.30280447    -0.66300
O4004       O  0.91290665  0.83615996  0.27991928    -0.50800
C4005       C  0.92361773  0.82241993  0.30175516     0.72500
O4006       O  0.52914849  0.91802076  0.31500448    -0.59200
O4007       O  0.54939743  0.92130269  0.27077667    -0.51100
C4008       C  0.55087439  0.92182802  0.29932948     0.74300
O4009       O  0.93478374  0.91963411  0.29817024    -0.70600
O4010       O  0.90668429  0.89046495  0.26907486    -0.49200
C4011       C  0.91114521  0.91018038  0.28949466     0.75700
O4012       O  0.53976486  0.83611403  0.31839779    -0.65900
O4013       O  0.56805510  0.86233531  0.29070220    -0.53100
C4014       C  0.56062076  0.85145262  0.31573390     0.74100
Zr4015     Zr  0.98934798  0.82434424  0.27814009     2.77500
O4016       O  0.98895936  0.79679874  0.32391952    -0.96600
O4017       O  0.00188549  0.77560213  0.26166176    -0.77500
Zr4018     Zr  0.98351827  0.91036272  0.28460076     2.70100
O4019       O  0.98390554  0.91937409  0.33999108    -0.78700
O4020       O  0.98288032  0.96186341  0.27958729    -0.97800
Zr4021     Zr  0.53972683  0.87603834  0.24732838     2.21500
Zr4022     Zr  0.93442400  0.86143051  0.23820317     2.11100
O4023       O  0.96131493  0.86549942  0.28346596    -2.46500
O4024       O  0.51459675  0.87053535  0.29215643    -0.78500
O4025       O  0.96156921  0.81947350  0.23422295    -0.70700
O4026       O  0.50556882  0.91321028  0.24937726    -2.31700
O4027       O  0.52670723  0.82684418  0.24585203    -2.27900
O4028       O  0.95626687  0.90738031  0.23972407    -0.72500
H4029       H  0.94754702  0.86488912  0.17421421     0.79500
H4030       H  0.51096138  0.93298293  0.24887237     0.80600
H4031       H  0.95120450  0.86647164  0.30210356     0.82800
H4032       H  0.54178577  0.81396780  0.24705105     0.80500
H4033       H  0.48800276  0.96476878  0.19396520     0.43500
H4034       H  0.00103913  0.96691354  0.27266485     0.42500
H4035       H  0.96584770  0.92684042  0.34523997     0.42100
H4036       H  0.00652144  0.78697314  0.32452591     0.40100
H4037       H  0.01968106  0.77260112  0.27118051     0.43200
H4038       H  0.00964487  0.76735364  0.17605322     0.38000
H4039       H  0.49683891  0.84984741  0.14390857     0.44100
H4040       H  0.97612463  0.92493955  0.13118598     0.40500
H4041       H  0.98950730  0.81105324  0.34150100     0.45400
H4042       H  0.98970699  0.77214204  0.14892021     0.44200
H4043       H  0.99908945  0.90225515  0.13198765     0.44300
H4044       H  0.97103348  0.96460691  0.26172966     0.44700
C4045       C  0.84416291  0.90549954  0.32551837     0.24700
C4046       C  0.82932376  0.92544010  0.30963342    -0.23400
C4047       C  0.84306093  0.94307625  0.28990442     0.19600
C4048       C  0.87094728  0.94065865  0.28614455     0.24600
C4049       C  0.88586958  0.92113290  0.30266849    -0.23400
C4050       C  0.87200893  0.90346322  0.32217473     0.19500
F4051       F  0.88539028  0.88327849  0.33716166    -0.13300
F4052       F  0.83181261  0.88928994  0.34600576    -0.15700
F4053       F  0.88332723  0.95672269  0.26555194    -0.15700
F4054       F  0.82963671  0.96390175  0.27575454    -0.13300
C4055       C  0.60109406  0.91491920  0.29147045     0.24700
C4056       C  0.57931750  0.92211205  0.31169023    -0.23400
C4057       C  0.58568085  0.92791714  0.34255580     0.19600
C4058       C  0.61258366  0.92768015  0.35251579     0.24600
C4059       C  0.63423980  0.92408067  0.33152576    -0.23400
C4060       C  0.62797012  0.91661330  0.30108965     0.19500
F4061       F  0.64775334  0.91252181  0.28013578    -0.13300
F4062       F  0.59671820  0.90567293  0.26199588    -0.15700
F4063       F  0.61756496  0.93295301  0.38282160    -0.15700
F4064       F  0.56607970  0.93459515  0.36305850    -0.13300
C4065       C  0.84298544  0.54134475  0.34413621     0.24700
C4066       C  0.82258235  0.53212439  0.32298894    -0.23400
C4067       C  0.83078899  0.52298849  0.29338991     0.19600
C4068       C  0.85781099  0.52577038  0.28442071     0.24600
C4069       C  0.87773041  0.53738972  0.30481488    -0.23400
C4070       C  0.87007636  0.54342132  0.33529366     0.19500
F4071       F  0.88875079  0.55176860  0.35656594    -0.13300
F4072       F  0.83666317  0.54823995  0.37377082    -0.15700
F4073       F  0.86448862  0.51814538  0.25509093    -0.15700
F4074       F  0.81283952  0.51051846  0.27337040    -0.13300
C4075       C  0.59227161  0.58662798  0.30449925     0.24700
C4076       C  0.57220054  0.56746162  0.29303955    -0.23400
C4077       C  0.57969144  0.53920032  0.28514253     0.19600
C4078       C  0.60616561  0.52995582  0.28978117     0.24600
C4079       C  0.62606632  0.54860798  0.30275759    -0.23400
C4080       C  0.61880821  0.57725323  0.30962194     0.19500
F4081       F  0.63692849  0.59578185  0.32282038    -0.13300
F4082       F  0.58597045  0.61439997  0.31143833    -0.15700
F4083       F  0.61216404  0.50205673  0.28299919    -0.15700
F4084       F  0.56139340  0.52052954  0.27248314    -0.13300
C4085       C  0.87961607  0.94395439  0.16113468     0.24700
C4086       C  0.88117466  0.92566461  0.18529152    -0.23400
C4087       C  0.85642622  0.91846180  0.19936503     0.19600
C4088       C  0.83134580  0.92862120  0.18909365     0.24600
C4089       C  0.82975180  0.94634451  0.16436107    -0.23400
C4090       C  0.85466487  0.95389227  0.15072815     0.19500
F4091       F  0.85533326  0.97080964  0.12653866    -0.13300
F4092       F  0.90227258  0.95186438  0.14680528    -0.15700
F4093       F  0.80868238  0.92125645  0.20372642    -0.15700
F4094       F  0.85618926  0.90144873  0.22346754    -0.13300
C4095       C  0.59696111  0.95068818  0.20487266     0.24700
C4096       C  0.57495130  0.94225647  0.18541801    -0.23400
C4097       C  0.57954096  0.94065070  0.15394116     0.19600
C4098       C  0.60559220  0.94449514  0.14244363     0.24600
C4099       C  0.62840712  0.94923799  0.16210514    -0.23400
C4100       C  0.62327175  0.95349889  0.19351762     0.19500
F4101       F  0.64344248  0.96158868  0.21314573    -0.13300
F4102       F  0.59300260  0.95548069  0.23538217    -0.15700
F4103       F  0.60835882  0.94356419  0.11158517    -0.15700
F4104       F  0.55912295  0.93364341  0.13424905    -0.13300
C4105       C  0.84948903  0.56079901  0.19873389     0.24700
C4106       C  0.87190848  0.55135651  0.18083113    -0.23400
C4107       C  0.86692428  0.54004041  0.15120926     0.19600
C4108       C  0.84065947  0.53775273  0.13976464     0.24600
C4109       C  0.81792119  0.54652439  0.15778236    -0.23400
C4110       C  0.82300097  0.55840507  0.18737111     0.19500
F4111       F  0.80246051  0.56799015  0.20535657    -0.13300
F4112       F  0.85302613  0.57317931  0.22724117    -0.15700
F4113       F  0.83793887  0.52641264  0.11067403    -0.15700
F4114       F  0.88755606  0.53091811  0.13309490    -0.13300
C4115       C  0.58697952  0.58555273  0.19003656     0.24700
C4116       C  0.56645374  0.56438815  0.19137923    -0.23400
C4117       C  0.57473733  0.53636435  0.19642697     0.19600
C4118       C  0.60228330  0.52932495  0.19660224     0.24600
C4119       C  0.62237408  0.54997539  0.19110324    -0.23400
C4120       C  0.61432474  0.57837777  0.19025826     0.19500
F4121       F  0.63286551  0.59898415  0.18634612    -0.13300
F4122       F  0.58090814  0.61350731  0.18719993    -0.15700
F4123       F  0.60928749  0.50148483  0.19869814    -0.15700
F4124       F  0.55631940  0.51555265  0.20024400    -0.13300
C4125       C  0.83261643  0.88316454  0.01661500     0.24700
C4126       C  0.82762970  0.86166673  0.03743750    -0.23400
C4127       C  0.81615110  0.86998181  0.06573456     0.19600
C4128       C  0.81002663  0.89889565  0.07305149     0.24600
C4129       C  0.81466846  0.92016544  0.05199796    -0.23400
C4130       C  0.82597479  0.91184093  0.02370861     0.19500
F4131       F  0.82970669  0.93141343  0.00240552    -0.13300
F4132       F  0.84313962  0.87630684  0.98866870    -0.15700
F4133       F  0.79803160  0.90578066  0.10016687    -0.15700
F4134       F  0.81091281  0.85020220  0.08638309    -0.13300
C4135       C  0.79894137  0.64084577  0.07519879     0.24700
C4136       C  0.78993847  0.65974304  0.05332167    -0.23400
C4137       C  0.77146126  0.64898315  0.03116175     0.19600
C4138       C  0.76419648  0.61990811  0.02919324     0.24600
C4139       C  0.77492256  0.60036738  0.04970266    -0.23400
C4140       C  0.79188926  0.61163828  0.07329857     0.19500
F4141       F  0.80131947  0.59458240  0.09503154    -0.13300
F4142       F  0.82462629  0.64250247  0.61294963    -0.15700
F4143       F  0.74696675  0.61079960  0.00652644    -0.15700
F4144       F  0.76228966  0.66623605  0.00944705    -0.13300
C4145       C  0.84265831  0.89092496  0.42945342     0.24700
C4146       C  0.81630603  0.89562037  0.42028775    -0.23400
C4147       C  0.79952191  0.87168457  0.41326932     0.19600
C4148       C  0.80771561  0.84392111  0.41927422     0.24600
C4149       C  0.83319651  0.83931764  0.43167198    -0.23400
C4150       C  0.85123342  0.86310239  0.43465021     0.19500
F4151       F  0.87696791  0.85992479  0.44433549    -0.13300
F4152       F  0.85949922  0.91331984  0.43552707    -0.15700
F4153       F  0.79006020  0.82201684  0.41483896    -0.15700
F4154       F  0.77440594  0.87538799  0.40193919    -0.13300
C4155       C  0.79232641  0.62719023  0.41917533     0.24700
C4156       C  0.80783752  0.63289488  0.44565089    -0.23400
C4157       C  0.81787870  0.60905783  0.46125559     0.19600
C4158       C  0.81086367  0.58097495  0.45213558     0.24600
C4159       C  0.79395932  0.57554614  0.42712801    -0.23400
C4160       C  0.78561202  0.59880820  0.40991660     0.19500
F4161       F  0.76917624  0.59416742  0.38527742    -0.13300
F4162       F  0.78215511  0.64895578  0.40346979    -0.15700
F4163       F  0.81866069  0.55927463  0.46947508    -0.15700
F4164       F  0.83379564  0.61266516  0.48649614    -0.13300
C4165       C  0.89805684  0.79199065  0.33560476     0.24700
C4166       C  0.90993512  0.81834959  0.33089659    -0.23400
C4167       C  0.91947962  0.83507307  0.35670979     0.19600
C4168       C  0.91906596  0.82471698  0.38613070     0.24600
C4169       C  0.90957311  0.79722577  0.39037970    -0.23400
C4170       C  0.89773511  0.78152141  0.36499405     0.19500
F4171       F  0.88675048  0.75535574  0.36828126    -0.13300
F4172       F  0.88937620  0.77508513  0.31130499    -0.15700
F4173       F  0.93036848  0.84041777  0.40983150    -0.15700
F4174       F  0.93255698  0.85999602  0.35292640    -0.13300
C4175       C  0.93981732  0.78894584  0.10248654     0.24700
C4176       C  0.92849623  0.80925531  0.08362342    -0.23400
C4177       C  0.91543061  0.83310681  0.09789164     0.19600
C4178       C  0.91262325  0.83552553  0.12998638     0.24600
C4179       C  0.92179101  0.81348708  0.14826017    -0.23400
C4180       C  0.93436761  0.78977373  0.13371899     0.19500
F4181       F  0.94081580  0.76675343  0.14975633    -0.13300
F4182       F  0.95447601  0.76668580  0.09054297    -0.15700
F4183       F  0.90139349  0.85956654  0.14302874    -0.15700
F4184       F  0.90558479  0.85417275  0.08091976    -0.13300
C4185       C  0.85718825  0.64397290  0.35101506     0.24700
C4186       C  0.87983877  0.62883452  0.34109367    -0.23400
C4187       C  0.89425581  0.61299616  0.36231989     0.19600
C4188       C  0.88805430  0.61501897  0.39345976     0.24600
C4189       C  0.86875642  0.63466712  0.40414621    -0.23400
C4190       C  0.85185083  0.64714895  0.38237642     0.19500
F4191       F  0.83387620  0.66737705  0.39150585    -0.13300
F4192       F  0.84291717  0.65942188  0.33120875    -0.15700
F4193       F  0.90446869  0.60227424  0.41352320    -0.15700
F4194       F  0.91665583  0.59840557  0.35366863    -0.13300
C4195       C  0.88233527  0.62885540  0.10052856     0.24700
C4196       C  0.87530277  0.65652770  0.09310033    -0.23400
C4197       C  0.86396533  0.67520871  0.11582211     0.19600
C4198       C  0.86307449  0.66799631  0.14618988     0.24600
C4199       C  0.87358621  0.64191674  0.15462511    -0.24600
C4200       C  0.88128825  0.62148650  0.13123944     0.19500
F4201       F  0.89148308  0.59595224  0.13840382    -0.13300
F4202       F  0.89292555  0.61024114  0.07901277    -0.15700
F4203       F  0.85491895  0.68788873  0.16788783    -0.15700
F4204       F  0.85505500  0.70137825  0.10870871    -0.13300
C4205       C  0.64595171  0.86432179  0.45591509     0.24700
C4206       C  0.65381854  0.84016454  0.43702841    -0.23400
C4207       C  0.66393321  0.84482275  0.40789336     0.19600
C4208       C  0.66702861  0.87276282  0.39849287     0.24600
C4209       C  0.66068713  0.89669347  0.41827764    -0.23400
C4210       C  0.64914751  0.89209136  0.44646770     0.19500
F4211       F  0.64391737  0.91457722  0.46644528    -0.13300
F4212       F  0.63591646  0.86141952  0.48427498    -0.15700
F4213       F  0.67893199  0.87657697  0.37122080    -0.15700
F4214       F  0.67195579  0.82247455  0.38907425    -0.13300
C4215       C  0.65015704  0.60564610  0.39287183     0.24700
C4216       C  0.63563600  0.58199138  0.40276102    -0.23400
C4217       C  0.61068116  0.58689966  0.41645072     0.19600
C4218       C  0.60210741  0.61505099  0.42354649     0.24600
C4219       C  0.61872795  0.63885310  0.41773552    -0.23400
C4220       C  0.64182798  0.63374622  0.40021621     0.19500
F4221       F  0.65759337  0.65571562  0.39232316    -0.13300
F4222       F  0.67371300  0.60146036  0.37791538    -0.15700
F4223       F  0.57823729  0.61882393  0.43798422    -0.15700
F4224       F  0.59576846  0.56470016  0.42549766    -0.13300
C4225       C  0.68826258  0.85510372  0.04427519     0.24700
C4226       C  0.67229388  0.84348963  0.06675645    -0.23400
C4227       C  0.66103940  0.86224620  0.08921685     0.19600
C4228       C  0.66151160  0.89179191  0.08596943     0.24600
C4229       C  0.67329103  0.90327502  0.06016798    -0.23400
C4230       C  0.68704140  0.88431057  0.03948862     0.19500
F4231       F  0.69835872  0.89358068  0.01370367    -0.13300
F4232       F  0.70056558  0.83745929  0.02306820    -0.15700
F4233       F  0.64938510  0.90882224  0.10755428    -0.15700
F4234       F  0.64624122  0.85172994  0.11193515    -0.13300
C4235       C  0.63337470  0.64373404  0.09066699     0.24700
C4236       C  0.62508665  0.64536523  0.06015384    -0.23400
C4237       C  0.61803465  0.61961563  0.04324363     0.19600
C4238       C  0.61959507  0.59323142  0.05643628     0.24600
C4239       C  0.62943020  0.59156058  0.08625739    -0.23400
C4240       C  0.63564297  0.61712111  0.10347063     0.19500
F4241       F  0.64663556  0.61603053  0.13180363    -0.13300
F4242       F  0.64033324  0.66766261  0.10779132    -0.15700
F4243       F  0.61479873  0.56906005  0.03865593    -0.15700
F4244       F  0.61114113  0.61950165  0.01312545    -0.13300
C4245       C  0.55534811  0.87224912  0.36785401     0.24700
C4246       C  0.57287510  0.85968494  0.34555253    -0.23400
C4247       C  0.59547081  0.84519073  0.35526838     0.19600
C4248       C  0.59768872  0.83881270  0.38599379     0.24600
C4249       C  0.57884855  0.84928273  0.40786360    -0.23400
C4250       C  0.55872564  0.86762671  0.39881070     0.19500
F4251       F  0.53963772  0.87692044  0.41898865    -0.13300
F4252       F  0.53208119  0.88452844  0.35929224    -0.15700
F4253       F  0.61498238  0.81792755  0.39282351    -0.15700
F4254       F  0.61233780  0.83249817  0.33444262    -0.13300
C4255       C  0.58026581  0.86096518  0.13628169     0.24700
C4256       C  0.56428291  0.84104541  0.15090433    -0.23400
C4257       C  0.54812027  0.82253133  0.13240393     0.19600
C4258       C  0.54538256  0.82585476  0.10130020     0.24600
C4259       C  0.56351820  0.84272092  0.08587611    -0.23400
C4260       C  0.58070518  0.86100394  0.10388850     0.19500
F4261       F  0.59758601  0.87899600  0.09029348    -0.13300
F4262       F  0.59632545  0.87924203  0.15312120    -0.15700
F4263       F  0.52626341  0.81008205  0.08611805    -0.15700
F4264       F  0.53483180  0.80044398  0.14405747    -0.13300
C4265       C  0.55445396  0.69609132  0.33661452     0.24700
C4266       C  0.54367379  0.66953225  0.32748464    -0.23400
C4267       C  0.53877738  0.64940054  0.34963871     0.19600
C4268       C  0.54065852  0.65747280  0.38095831     0.24600
C4269       C  0.54864441  0.68533320  0.39000184    -0.23400
C4270       C  0.55778964  0.70355756  0.36757130     0.19500
F4271       F  0.56854930  0.72955033  0.37572426    -0.13300
F4272       F  0.55971216  0.71564627  0.31571540    -0.15700
F4273       F  0.53245525  0.63915476  0.40194419    -0.15700
F4274       F  0.52898336  0.62314677  0.34096166    -0.13300
C4275       C  0.54631262  0.65477060  0.12464178     0.24700
C4276       C  0.53312971  0.67279359  0.14646986    -0.23400
C4277       C  0.52479307  0.69982690  0.13810755     0.19600
C4278       C  0.52757850  0.70804254  0.10820186     0.24600
C4279       C  0.53988931  0.68981926  0.08558337    -0.23400
C4280       C  0.55010566  0.66337358  0.09459854     0.19500
F4281       F  0.56248371  0.64515244  0.07407338    -0.13300
F4282       F  0.55337540  0.62791747  0.13159708    -0.15700
F4283       F  0.51745422  0.73385762  0.10154207    -0.15700
F4284       F  0.51127708  0.71729378  0.15840668    -0.13300
O4285       O  0.63119457  0.69337896  0.55260256    -0.74200
O4286       O  0.60124153  0.66864920  0.52187126    -0.53100
C4287       C  0.61846165  0.67020014  0.54363505     0.79500
O4288       O  0.55239359  0.81497494  0.54228294    -0.58800
O4289       O  0.58930899  0.84021030  0.53844949    -0.51800
C4290       C  0.56941510  0.83269891  0.55441579     0.71500
O4291       O  0.54596268  0.71760358  0.56394230    -0.73400
O4292       O  0.55172137  0.68031902  0.52906571    -0.53900
C4293       C  0.54668215  0.69089058  0.55617086     0.77500
O4294       O  0.65893065  0.78950420  0.54950868    -0.58500
O4295       O  0.63443679  0.82720783  0.53345179    -0.51600
C4296       C  0.65451425  0.81659985  0.54687968     0.74100
Zr4297     Zr  0.63402782  0.74360542  0.53732607     2.54700
O4298       O  0.63738007  0.74723773  0.59293776    -0.79100
O4299       O  0.68084657  0.72927560  0.53319143    -0.92500
Zr4300     Zr  0.55545678  0.76280272  0.54283420     2.64700
O4301       O  0.56943402  0.75852007  0.59598958    -0.97500
O4302       O  0.50805034  0.76805989  0.55535148    -0.79500
O4303       O  0.58900560  0.72777747  0.53677646    -0.82900
O4304       O  0.60040170  0.77937432  0.54218790    -2.17600
O4305       O  0.65820668  0.79476710  0.93935544    -0.66300
O4306       O  0.65311548  0.81866824  0.98415823    -0.50800
C4307       C  0.65916047  0.81842621  0.95618979     0.72500
O4308       O  0.56461101  0.72192076  0.91684514    -0.59200
O4309       O  0.56269822  0.68465280  0.94750676    -0.51100
C4310       C  0.56322997  0.69507094  0.92086395     0.74300
O4311       O  0.57088371  0.81197083  0.92597470    -0.70600
O4312       O  0.59771346  0.84068736  0.95706335    -0.49200
C4313       C  0.58504172  0.83466023  0.93176147     0.75700
O4314       O  0.63636930  0.69589580  0.93219924    -0.65900
O4315       O  0.60833258  0.67080889  0.96143020    -0.53100
C4316       C  0.62441192  0.67239580  0.93913238     0.74100
Zr4317     Zr  0.64048738  0.74673429  0.95383700     2.77500
O4318       O  0.65030851  0.74200573  0.89939553    -0.96600
O4319       O  0.68695668  0.73583827  0.96623135    -0.77500
Zr4320     Zr  0.56199262  0.76609652  0.94801429     2.70100
O4321       O  0.53996680  0.76896543  0.89832652    -0.78700
O4322       O  0.51415845  0.77067515  0.95904263    -0.97800
Zr4323     Zr  0.58598186  0.70562904  0.99261891     2.21500
Zr4324     Zr  0.60420148  0.80635071  0.49774419     2.11100
O4325       O  0.60697079  0.78243181  0.95143672    -2.46500
O4326       O  0.59620943  0.73544342  0.95608002    -0.78500
O4327       O  0.64281580  0.77443557  0.00104051    -0.70700
O4328       O  0.54421958  0.73594894  0.49639780    -2.31700
O4329       O  0.63204729  0.72038230  0.99767316    -2.27900
O4330       O  0.55849104  0.79250860  0.50054913    -0.72500
H4331       H  0.60422132  0.79097399  0.56061045     0.79500
H4332       H  0.52660334  0.72735389  0.49655219     0.80600
H4333       H  0.61201560  0.79174119  0.93335798     0.82800
H4334       H  0.64407100  0.70423785  0.99804311     0.80500
H4335       H  0.50554506  0.75688868  0.57366525     0.43500
H4336       H  0.51298004  0.78528618  0.97619700     0.42500
H4337       H  0.55465796  0.76788454  0.88320460     0.42100
H4338       H  0.63881357  0.75651261  0.89016890     0.40100
H4339       H  0.68717207  0.71494055  0.96852500     0.43200
H4340       H  0.68829777  0.73321985  0.55403889     0.38000
H4341       H  0.62219910  0.73573217  0.59994200     0.44100
H4342       H  0.58110361  0.77480223  0.60243815     0.40500
H4343       H  0.66879531  0.74946263  0.89772928     0.45400
H4344       H  0.68916597  0.74389746  0.52080275     0.44200
H4345       H  0.55317326  0.75959881  0.60877349     0.44300
H4346       H  0.50616756  0.78008280  0.94144518     0.44700
O4347       O  0.90745647  0.68790031  0.56987423    -0.74200
O4348       O  0.88166220  0.65407293  0.54480074    -0.53100
C4349       C  0.89307690  0.66526882  0.56909324     0.79500
O4350       O  0.83754772  0.80150810  0.55775632    -0.58800
O4351       O  0.86396571  0.82093558  0.52228682    -0.51800
C4352       C  0.84850578  0.82328462  0.54528360     0.71500
O4353       O  0.81396571  0.70215876  0.56260412    -0.73400
O4354       O  0.82765975  0.66992478  0.02744819    -0.53900
C4355       C  0.81880125  0.67477571  0.55909310     0.77500
O4356       O  0.93953395  0.77271067  0.53770833    -0.58500
O4357       O  0.91291380  0.80952199  0.53246177    -0.51600
C4358       C  0.92961170  0.79603652  0.54886490     0.74100
Zr4359     Zr  0.91673878  0.72700623  0.53851559     2.54700
O4360       O  0.92470139  0.73218890  0.59332727    -0.79100
O4361       O  0.96258536  0.70908433  0.53724977    -0.92500
Zr4362     Zr  0.83686728  0.74775144  0.54759900     2.64700
O4363       O  0.84268970  0.75125290  0.60296718    -0.97500
O4364       O  0.79005785  0.76200828  0.55265789    -0.79500
O4365       O  0.87157964  0.71322580  0.54464607    -0.82900
O4366       O  0.88211399  0.76218461  0.54131435    -2.17600
O4367       O  0.93992610  0.76860727  0.94348084    -0.66300
O4368       O  0.91461836  0.80779161  0.95019960    -0.50800
C4369       C  0.93050712  0.79180456  0.93356700     0.72500
O4370       O  0.82557486  0.69239627  0.92597839    -0.59200
O4371       O  0.81960001  0.67532403  0.97158941    -0.51100
C4372       C  0.82026164  0.67125649  0.94304440     0.74300
O4373       O  0.83924484  0.79411616  0.92337435    -0.70600
O4374       O  0.86528068  0.82205197  0.95591509    -0.49200
C4375       C  0.85086936  0.81822979  0.93192465     0.75700
O4376       O  0.91731335  0.67485784  0.95051675    -0.65900
O4377       O  0.87711164  0.65528105  0.95328264    -0.53100
C4378       C  0.89883266  0.65923799  0.93836015     0.74100
Zr4379     Zr  0.91344885  0.72633588  0.95220882     2.77500
O4380       O  0.89599965  0.72921029  0.89971665    -0.96600
O4381       O  0.96040807  0.71653531  0.94041980    -0.77500
Zr4382     Zr  0.83556484  0.74451315  0.94281541     2.70100
O4383       O  0.83439495  0.74340121  0.88707744    -0.78700
O4384       O  0.78733436  0.75268680  0.94167734    -0.97800
Zr4385     Zr  0.86052451  0.68796831  0.99583791     2.21500
Zr4386     Zr  0.88503237  0.79292041  0.99165689     2.11100
O4387       O  0.88027214  0.76163394  0.94734120    -2.46500
O4388       O  0.86888410  0.70890463  0.94866921    -0.78500
O4389       O  0.91826541  0.75715955  0.99683761    -0.70700
O4390       O  0.82631821  0.72449408  0.99034983    -2.31700
O4391       O  0.90597361  0.70340792  0.99936916    -2.27900
O4392       O  0.83924708  0.77649846  0.98745458    -0.72500
H4393       H  0.88515518  0.77531643  0.55871635     0.79500
H4394       H  0.80773935  0.71861448  0.99004305     0.80600
H4395       H  0.88345423  0.77161756  0.92908176     0.82800
H4396       H  0.91799759  0.68774433  0.00289804     0.80500
H4397       H  0.78844836  0.76971603  0.57409117     0.43500
H4398       H  0.78393652  0.76077865  0.92158482     0.42500
H4399       H  0.82491690  0.72551986  0.88051947     0.42100
H4400       H  0.88394010  0.71275882  0.89509207     0.40100
H4401       H  0.96646049  0.70364720  0.95626507     0.43200
H4402       H  0.97039890  0.71653711  0.51855897     0.38000
H4403       H  0.90894270  0.74297492  0.60136580     0.44100
H4404       H  0.85823840  0.76417266  0.60661795     0.40500
H4405       H  0.91071086  0.72719869  0.88487382     0.45400
H4406       H  0.96086170  0.68824395  0.53267740     0.44200
H4407       H  0.82710950  0.76250364  0.61069743     0.44300
H4408       H  0.77938609  0.73330988  0.93967303     0.44700
O4409       O  0.67661298  0.55026188  0.66777160    -0.74200
O4410       O  0.64718407  0.52121434  0.64035882    -0.53100
C4411       C  0.65256955  0.54038201  0.66116518     0.79500
O4412       O  0.75908513  0.55582193  0.54028777    -0.58800
O4413       O  0.79142754  0.54249113  0.57217003    -0.51800
C4414       C  0.78017126  0.56155702  0.55617929     0.71500
O4415       O  0.68166201  0.56809032  0.58873554    -0.73400
O4416       O  0.64706663  0.53797271  0.58214774    -0.53900
C4417       C  0.65667700  0.56363419  0.58449577     0.77500
O4418       O  0.77435876  0.53859253  0.66651095    -0.58500
O4419       O  0.79783727  0.53057936  0.62279551    -0.51600
C4420       C  0.79688053  0.53620951  0.65136729     0.74100
Zr4421     Zr  0.72455812  0.53824316  0.65173728     2.54700
O4422       O  0.72927809  0.59003415  0.65448252    -0.79100
O4423       O  0.72576564  0.53927338  0.70744943    -0.92500
Zr4424     Zr  0.71600815  0.54278663  0.56035365     2.64700
O4425       O  0.71954191  0.59214209  0.54560602    -0.97500
O4426       O  0.68612906  0.54821952  0.51681752    -0.79500
O4427       O  0.70074699  0.53353610  0.60718604    -0.82900
O4428       O  0.74510013  0.54261767  0.60349655    -2.17600
O4429       O  0.78709608  0.94442224  0.66532661    -0.66300
O4430       O  0.81817811  0.97296513  0.64405145    -0.50800
C4431       C  0.81207876  0.95286089  0.66105597     0.72500
O4432       O  0.71311794  0.93403440  0.53628837    -0.59200
O4433       O  0.68068516  0.94771827  0.56908823    -0.51100
C4434       C  0.69264461  0.92849619  0.55204302     0.74300
O4435       O  0.79671316  0.93390760  0.56021915    -0.70600
O4436       O  0.82413472  0.96162187  0.59153845    -0.49200
C4437       C  0.81851935  0.93839249  0.57518626     0.75700
O4438       O  0.68807942  0.94965589  0.65438222    -0.65900
O4439       O  0.66321193  0.97087390  0.61781629    -0.53100
C4440       C  0.66511167  0.95651540  0.64167655     0.74100
Zr4441     Zr  0.73874120  0.95762468  0.64710983     2.77500
O4442       O  0.73405173  0.90587218  0.64607807    -0.96600
O4443       O  0.73561245  0.96225943  0.70266974    -0.77500
Zr4444     Zr  0.75357275  0.95561218  0.55580622     2.70100
O4445       O  0.75452763  0.90381939  0.54731451    -0.78700
O4446       O  0.76946081  0.95728769  0.50339959    -0.97800
Zr4447     Zr  0.69549240  0.99511044  0.58934965     2.21500
Zr4448     Zr  0.77052477  0.49979476  0.59279829     2.11100
O4449       O  0.76972576  0.95795775  0.60661587    -2.46500
O4450       O  0.72555379  0.96003366  0.59690387    -0.78500
O4451       O  0.75070493  0.49655102  0.64292363    -0.70700
O4452       O  0.69081928  0.49959273  0.55238601    -2.31700
O4453       O  0.71097666  0.99859683  0.64168884    -2.27900
O4454       O  0.74364076  0.50182450  0.54800092    -0.72500
H4455       H  0.75548359  0.55997369  0.60573304     0.79500
H4456       H  0.67743334  0.49971175  0.53632185     0.80600
H4457       H  0.78012487  0.94120015  0.61017342     0.82800
H4458       H  0.69672542  0.99959960  0.65648486     0.80500
H4459       H  0.67212323  0.56194285  0.52390163     0.43500
H4460       H  0.77994047  0.97510323  0.50273400     0.42500
H4461       H  0.74997591  0.89644576  0.56739984     0.42100
H4462       H  0.72305688  0.90233506  0.66423506     0.40100
H4463       H  0.75281466  0.97108524  0.70959194     0.43200
H4464       H  0.70712763  0.53536091  0.71364949     0.38000
H4465       H  0.71765542  0.59647596  0.63777126     0.44100
H4466       H  0.71854498  0.59105616  0.52297373     0.40500
H4467       H  0.72202945  0.90113484  0.62840260     0.45400
H4468       H  0.72875105  0.55962610  0.71386594     0.44200
H4469       H  0.70260170  0.60164654  0.55199593     0.44300
H4470       H  0.78321546  0.94206173  0.50146935     0.44700
O4471       O  0.68389602  0.56601778  0.90340470    -0.74200
O4472       O  0.64836216  0.53689749  0.89346588    -0.53100
C4473       C  0.65898747  0.56202934  0.89799138     0.79500
O4474       O  0.77840503  0.52874786  0.81862288    -0.58800
O4475       O  0.80271737  0.50927590  0.85683974    -0.51800
C4476       C  0.80105394  0.52215604  0.83205709     0.71500
O4477       O  0.68010016  0.53705510  0.80996452    -0.73400
O4478       O  0.64777769  0.51539154  0.83759365    -0.53900
C4479       C  0.65503958  0.53072493  0.81603174     0.77500
O4480       O  0.76315018  0.56216064  0.92499656    -0.58500
O4481       O  0.79653459  0.53051226  0.91291275    -0.51600
C4482       C  0.78779661  0.55599299  0.92033980     0.74100
Zr4483     Zr  0.72044403  0.53838662  0.92113451     2.54700
O4484       O  0.71643373  0.58652182  0.94480166    -0.79100
O4485       O  0.71287495  0.54088528  0.97598516    -0.92500
Zr4486     Zr  0.72789991  0.52571778  0.82883722     2.64700
O4487       O  0.73247833  0.57715531  0.82543731    -0.97500
O4488       O  0.73196366  0.51856241  0.77356131    -0.79500
O4489       O  0.69983367  0.53302364  0.87218800    -0.82900
O4490       O  0.74854851  0.53117548  0.87775881    -2.17600
O4491       O  0.80048611  0.92549660  0.91308776    -0.66300
O4492       O  0.82873239  0.94781064  0.88119936    -0.50800
C4493       C  0.82181588  0.92649562  0.89694520     0.72500
O4494       O  0.68996997  0.93319200  0.83395054    -0.59200
O4495       O  0.66798416  0.96400503  0.86748760    -0.51100
C4496       C  0.66834211  0.94305113  0.84766722     0.74300
O4497       O  0.78498928  0.92250139  0.81470001    -0.70600
O4498       O  0.80461428  0.96430089  0.81337908    -0.49200
C4499       C  0.80659439  0.93753522  0.81236924     0.75700
O4500       O  0.71976318  0.92655955  0.92538234    -0.65900
O4501       O  0.68311623  0.95410778  0.91739038    -0.53100
C4502       C  0.69443711  0.93001230  0.92347959     0.74100
Zr4503     Zr  0.76022435  0.95350346  0.92193469     2.77500
O4504       O  0.75708726  0.91428365  0.95623855    -0.96600
O4505       O  0.77819015  0.97185264  0.97101007    -0.77500
Zr4506     Zr  0.73997791  0.94308634  0.83147793     2.70100
O4507       O  0.73431662  0.89147587  0.83169209    -0.78700
O4508       O  0.73167756  0.94258964  0.77655261    -0.97800
Zr4509     Zr  0.70171308  0.99429300  0.88828982     2.21500
Zr4510     Zr  0.80118076  0.98728518  0.86271355     2.11100
O4511       O  0.77354970  0.94656122  0.87029206    -2.46500
O4512       O  0.72693984  0.95167542  0.88296656    -0.78500
O4513       O  0.78807824  0.99301834  0.91444775    -0.70700
O4514       O  0.71670172  0.98718279  0.83604248    -2.31700
O4515       O  0.73424258  0.99630994  0.92855768    -2.27900
O4516       O  0.76705446  0.98379665  0.82335657    -0.72500
H4517       H  0.76041216  0.54680462  0.87425968     0.79500
H4518       H  0.70190210  0.98537431  0.82173531     0.80600
H4519       H  0.78163096  0.92818421  0.86670672     0.82800
H4520       H  0.72577021  0.99891645  0.94821651     0.80500
H4521       H  0.71614158  0.50691206  0.76708325     0.43500
H4522       H  0.74545795  0.92951951  0.76752185     0.42500
H4523       H  0.74700164  0.88342376  0.81620194     0.42100
H4524       H  0.76074756  0.89676304  0.94321419     0.40100
H4525       H  0.79744398  0.96667467  0.97035998     0.43200
H4526       H  0.73111669  0.54089150  0.98509273     0.38000
H4527       H  0.72297390  0.59941981  0.92929956     0.44100
H4528       H  0.74449476  0.57931481  0.80780522     0.40500
H4529       H  0.77291713  0.91622665  0.96999305     0.45400
H4530       H  0.70531160  0.52218182  0.98055024     0.44200
H4531       H  0.71471028  0.58357528  0.81824399     0.44300
H4532       H  0.71459158  0.93200559  0.77348140     0.44700
O4533       O  0.52150019  0.55978331  0.67715050    -0.74200
O4534       O  0.54663285  0.59302325  0.70493213    -0.53100
C4535       C  0.54427155  0.57195628  0.68555335     0.79500
O4536       O  0.91330320  0.66188212  0.70220200    -0.58800
O4537       O  0.89083864  0.62124974  0.70804421    -0.51800
C4538       C  0.89562555  0.64335042  0.69309789     0.71500
O4539       O  0.49347917  0.65100170  0.66863831    -0.73400
O4540       O  0.53252870  0.64172347  0.69314209    -0.53900
C4541       C  0.51895707  0.64799892  0.66900235     0.77500
O4542       O  0.92639230  0.55530212  0.67738360    -0.58500
O4543       O  0.90988994  0.55728571  0.72436100    -0.51600
C4544       C  0.90647099  0.55334818  0.69589177     0.74100
Zr4545     Zr  0.97352192  0.56926466  0.69115883     2.54700
O4546       O  0.97478962  0.57363462  0.63603047    -0.79100
O4547       O  0.97425276  0.51760560  0.68321175    -0.92500
Zr4548     Zr  0.96182391  0.65430633  0.70324649     2.64700
O4549       O  0.95541787  0.65258326  0.64787850    -0.97500
O4550       O  0.95525953  0.70579322  0.70284502    -0.79500
O4551       O  0.48712292  0.61347128  0.69611046    -0.82900
O4552       O  0.94293837  0.60809473  0.69816322    -2.17600
O4553       O  0.93134004  0.54460484  0.79466030    -0.66300
O4554       O  0.89753550  0.57030535  0.77356434    -0.50800
C4555       C  0.90592474  0.55003869  0.78918926     0.72500
O4556       O  0.50702458  0.64341182  0.81591744    -0.59200
O4557       O  0.54020691  0.64250777  0.78082132    -0.51100
C4558       C  0.53175919  0.64469334  0.80864948     0.74300
O4559       O  0.92288560  0.65881876  0.79383837    -0.70600
O4560       O  0.89521688  0.62235606  0.78991440    -0.49200
C4561       C  0.90523712  0.64335861  0.80594294     0.75700
O4562       O  0.52666855  0.55336695  0.78662797    -0.65900
O4563       O  0.54939597  0.58810760  0.76270212    -0.53100
C4564       C  0.54874679  0.56618820  0.77883664     0.74100
Zr4565     Zr  0.97803916  0.56417062  0.78218679     2.77500
O4566       O  0.98318086  0.56307692  0.83749672    -0.96600
O4567       O  0.98286456  0.51270635  0.77495357    -0.77500
Zr4568     Zr  0.97081445  0.64878336  0.79237878     2.70100
O4569       O  0.96959004  0.65647866  0.84778186    -0.78700
O4570       O  0.98364078  0.69874082  0.80157339    -0.97800
Zr4571     Zr  0.51666422  0.61651412  0.73834278     2.21500
Zr4572     Zr  0.92088652  0.60324257  0.74630415     2.11100
O4573       O  0.94888766  0.60374933  0.79131575    -2.46500
O4574       O  0.49414860  0.60654547  0.78407280    -0.78500
O4575       O  0.95051253  0.56313719  0.73812279    -0.70700
O4576       O  0.48720877  0.65624673  0.74614124    -2.31700
O4577       O  0.49929451  0.56850149  0.73342696    -2.27900
O4578       O  0.94004930  0.65005707  0.75070871    -0.72500
H4579       H  0.93145865  0.60708965  0.68038551     0.79500
H4580       H  0.49686985  0.67413733  0.74787655     0.80600
H4581       H  0.93913899  0.60124137  0.80995430     0.82800
H4582       H  0.51334632  0.55442581  0.73100419     0.80500
H4583       H  0.94537253  0.70878706  0.68357826     0.43500
H4584       H  0.00343671  0.69891819  0.79982623     0.42500
H4585       H  0.97412600  0.63772551  0.85580218     0.42100
H4586       H  0.99786530  0.57674141  0.84275657     0.40100
H4587       H  0.00207509  0.50963355  0.77023408     0.43200
H4588       H  0.49052358  0.51063493  0.67021176     0.38000
H4589       H  0.48068436  0.55279123  0.62571917     0.44100
H4590       H  0.95762599  0.67250708  0.64196289     0.40500
H4591       H  0.96686602  0.57255545  0.84590434     0.45400
H4592       H  0.99236671  0.51212499  0.69022127     0.44200
H4593       H  0.97136718  0.64237621  0.63950469     0.44300
H4594       H  0.97702962  0.70844646  0.78345984     0.44700
O4595       O  0.55007092  0.82700781  0.69676344    -0.74200
O4596       O  0.57198090  0.86785077  0.70223431    -0.53100
C4597       C  0.56555913  0.84536422  0.68594013     0.79500
O4598       O  0.93737458  0.91221882  0.69377848    -0.58800
O4599       O  0.91208859  0.87971708  0.71755947    -0.51800
C4600       C  0.91426709  0.90136545  0.70132004     0.71500
O4601       O  0.53628653  0.93450499  0.68690332    -0.73400
O4602       O  0.56902172  0.91475128  0.71575098    -0.53900
C4603       C  0.56148272  0.93077219  0.69478057     0.77500
O4604       O  0.95634394  0.79672698  0.69458019    -0.58500
O4605       O  0.92175052  0.82532389  0.69945438    -0.51600
C4606       C  0.93592937  0.80817982  0.68252783     0.74100
Zr4607     Zr  0.99995422  0.81910260  0.69358471     2.54700
O4608       O  0.99352605  0.82451565  0.63892124    -0.79100
O4609       O  0.01068711  0.76870534  0.68321798    -0.92500
Zr4610     Zr  0.98767753  0.90464417  0.70039298     2.64700
O4611       O  0.98374737  0.90896575  0.64533627    -0.97500
O4612       O  0.98329162  0.95646664  0.70700061    -0.79500
O4613       O  0.51648349  0.87904260  0.70792938    -0.82900
O4614       O  0.96892280  0.85805470  0.69657497    -2.17600
O4615       O  0.95849349  0.79411514  0.79004486    -0.66300
O4616       O  0.92591167  0.82606987  0.78669443    -0.50800
C4617       C  0.93839283  0.80721465  0.80180715     0.72500
O4618       O  0.53741666  0.92650042  0.81744398    -0.59200
O4619       O  0.55943596  0.92751405  0.77382363    -0.51100
C4620       C  0.55968746  0.92848931  0.80257839     0.74300
O4621       O  0.93890983  0.90897836  0.80340898    -0.70600
O4622       O  0.91410409  0.87749402  0.77344411    -0.49200
C4623       C  0.91610118  0.89727743  0.79427691     0.75700
O4624       O  0.54318291  0.84584850  0.81720091    -0.65900
O4625       O  0.57444088  0.86746860  0.78900828    -0.53100
C4626       C  0.56596675  0.85768261  0.81414158     0.74100
Zr4627     Zr  0.00095839  0.81720092  0.78271763     2.77500
O4628       O  0.99650624  0.80280862  0.83520644    -0.96600
O4629       O  0.02025034  0.76990456  0.77221859    -0.77500
Zr4630     Zr  0.98890416  0.90266819  0.79149244     2.70100
O4631       O  0.98602684  0.90531564  0.84712570    -0.78700
O4632       O  0.99009755  0.95471204  0.79352545    -0.97800
Zr4633     Zr  0.54614840  0.88442124  0.74734752     2.21500
Zr4634     Zr  0.94404166  0.85138129  0.74269071     2.11100
O4635       O  0.97040875  0.85607707  0.78880698    -2.46500
O4636       O  0.51748354  0.87984475  0.78664341    -0.78500
O4637       O  0.97388881  0.81154926  0.73802032    -0.70700
O4638       O  0.51576309  0.92506650  0.74964825    -2.31700
O4639       O  0.53053150  0.83609283  0.74658358    -2.27900
O4640       O  0.96244933  0.89913498  0.74589480    -0.72500
H4641       H  0.95740186  0.85756021  0.67873965     0.79500
H4642       H  0.52324056  0.94407192  0.74925098     0.80600
H4643       H  0.96072200  0.85529703  0.80770299     0.82800
H4644       H  0.54475112  0.82220679  0.74818966     0.80500
H4645       H  0.47547572  0.97285149  0.68436991     0.43500
H4646       H  0.98447927  0.96057651  0.81459653     0.42500
H4647       H  0.97361535  0.92137588  0.85209951     0.42100
H4648       H  0.01254468  0.79118845  0.83951426     0.40100
H4649       H  0.02978345  0.76553713  0.79132672     0.43200
H4650       H  0.00490006  0.76375085  0.66196970     0.38000
H4651       H  0.49958211  0.80169857  0.64402748     0.44100
H4652       H  0.96521468  0.91585900  0.64212182     0.40500
H4653       H  0.99856037  0.82055613  0.84838367     0.45400
H4654       H  0.99817709  0.75825710  0.69604726     0.44200
H4655       H  0.99516539  0.92557200  0.64117348     0.44300
H4656       H  0.00941917  0.95957860  0.79311252     0.44700
C4657       C  0.84008121  0.89710586  0.80321293     0.24700
C4658       C  0.83469575  0.92560588  0.81200991    -0.23400
C4659       C  0.85700473  0.94336696  0.82094527     0.19600
C4660       C  0.88363125  0.93403114  0.81745507     0.24600
C4661       C  0.88899168  0.90621890  0.80618418    -0.23400
C4662       C  0.86668344  0.88736503  0.80102655     0.19500
F4663       F  0.87051490  0.85936870  0.79247085    -0.13300
F4664       F  0.81971828  0.87878517  0.79560849    -0.15700
F4665       F  0.90399512  0.95269450  0.82389475    -0.15700
F4666       F  0.85341210  0.97002756  0.83358689    -0.13300
C4667       C  0.60948267  0.92003916  0.79817292     0.24700
C4668       C  0.58721515  0.92876828  0.81671609    -0.23400
C4669       C  0.59224102  0.93682952  0.84752083     0.19600
C4670       C  0.61878960  0.93821674  0.85873442     0.24600
C4671       C  0.64100489  0.93212557  0.83914280    -0.23400
C4672       C  0.63576415  0.92151024  0.80931602     0.19500
F4673       F  0.65617827  0.91443361  0.78998111    -0.13300
F4674       F  0.60617780  0.91027370  0.76859469    -0.15700
F4675       F  0.62278716  0.94692753  0.88854346    -0.15700
F4676       F  0.57171743  0.94452891  0.86644700    -0.13300
C4677       C  0.84900052  0.53708609  0.84103014     0.24700
C4678       C  0.82826878  0.52881528  0.81989310    -0.23400
C4679       C  0.83563344  0.52156935  0.78956516     0.19600
C4680       C  0.86261904  0.52399531  0.78043998     0.24600
C4681       C  0.88298672  0.53390389  0.80130594    -0.23400
C4682       C  0.87580460  0.53954113  0.83185833     0.19500
F4683       F  0.89436989  0.55001391  0.85239025    -0.13300
F4684       F  0.84317936  0.54358516  0.87086438    -0.15700
F4685       F  0.86871698  0.51826732  0.75057363    -0.15700
F4686       F  0.81687103  0.51185477  0.76887002    -0.13300
C4687       C  0.59523810  0.57673539  0.79951507     0.24700
C4688       C  0.57617720  0.55628067  0.78822093    -0.23400
C4689       C  0.58534139  0.52831723  0.78118431     0.19600
C4690       C  0.61244015  0.52091530  0.78644751     0.24600
C4691       C  0.63125198  0.54122238  0.79886297    -0.23400
C4692       C  0.62215807  0.56926508  0.80506541     0.19500
F4693       F  0.63887897  0.58905700  0.81867058    -0.13300
F4694       F  0.58754906  0.60414360  0.80605443    -0.15700
F4695       F  0.62011749  0.49332215  0.78086515    -0.15700
F4696       F  0.56821366  0.50821745  0.76887782    -0.13300
C4697       C  0.88722373  0.94021810  0.67740636     0.24700
C4698       C  0.88783920  0.91429308  0.69162131    -0.23400
C4699       C  0.86259453  0.90124037  0.69749931     0.19600
C4700       C  0.83786329  0.91370584  0.68896915     0.24600
C4701       C  0.83736271  0.93960233  0.67425031    -0.23400
C4702       C  0.86288986  0.95262156  0.66908466     0.19500
F4703       F  0.86503243  0.97773198  0.65523959    -0.13300
F4704       F  0.91036080  0.95402670  0.67131425    -0.15700
F4705       F  0.81458464  0.90002818  0.69462644    -0.15700
F4706       F  0.86159416  0.87598407  0.71120075    -0.13300
C4707       C  0.60764206  0.95194360  0.69857056     0.24700
C4708       C  0.58520606  0.94399069  0.67976187    -0.23400
C4709       C  0.58944988  0.94077888  0.64805984     0.19600
C4710       C  0.61548295  0.94389023  0.63590403     0.24600
C4711       C  0.63824432  0.94961685  0.65515828    -0.23400
C4712       C  0.63365837  0.95413263  0.68660808     0.19500
F4713       F  0.65429721  0.96149968  0.70586487    -0.13300
F4714       F  0.60448392  0.95643155  0.72924934    -0.15700
F4715       F  0.61854291  0.94031300  0.60512693    -0.15700
F4716       F  0.56896704  0.93227380  0.62905806    -0.13300
C4717       C  0.85640623  0.55971019  0.70241459     0.24700
C4718       C  0.87838732  0.54795554  0.68538995    -0.23400
C4719       C  0.87303359  0.53128781  0.65878139     0.19600
C4720       C  0.84662244  0.52645593  0.64913390     0.24600
C4721       C  0.82437455  0.53889145  0.66545122    -0.23400
C4722       C  0.82974347  0.55506280  0.69264021     0.19500
F4723       F  0.80942769  0.56731728  0.70914092    -0.13300
F4724       F  0.86060698  0.57665682  0.72813520    -0.15700
F4725       F  0.84315761  0.50960316  0.62317563    -0.15700
F4726       F  0.89341176  0.51946574  0.64198873    -0.13300
C4727       C  0.58954799  0.58223566  0.66586721     0.24700
C4728       C  0.57105038  0.56163401  0.67522631    -0.23400
C4729       C  0.58140422  0.53619105  0.68612954     0.19600
C4730       C  0.60928488  0.53117570  0.68650860     0.24600
C4731       C  0.62760465  0.55135041  0.67580151    -0.23400
C4732       C  0.61730295  0.57729424  0.66660933     0.19500
F4733       F  0.63416194  0.59757677  0.65722616    -0.13300
F4734       F  0.58063130  0.60792621  0.65714593    -0.15700
F4735       F  0.61854089  0.50596446  0.69624031    -0.15700
F4736       F  0.56461924  0.51671872  0.69761100    -0.13300
C4737       C  0.85498432  0.87658767  0.54046558     0.24700
C4738       C  0.84432250  0.85381831  0.55704695    -0.23400
C4739       C  0.83058405  0.86119730  0.58428202     0.19600
C4740       C  0.82619191  0.89013058  0.59341541     0.24600
C4741       C  0.83522865  0.91242945  0.57551867    -0.23400
C4742       C  0.85041787  0.90521216  0.54963534     0.19500
F4743       F  0.85832735  0.92591628  0.53114492    -0.13300
F4744       F  0.86862472  0.87160317  0.51395939    -0.15700
F4745       F  0.81038044  0.89629664  0.61800662    -0.15700
F4746       F  0.82016516  0.84059206  0.60128078    -0.13300
C4747       C  0.80870944  0.63302076  0.58924231     0.24700
C4748       C  0.80000103  0.65225546  0.56762070    -0.23400
C4749       C  0.78363534  0.64140024  0.54335118     0.19600
C4750       C  0.77946849  0.61190781  0.53823992     0.24600
C4751       C  0.78902350  0.59230789  0.55914536    -0.23400
C4752       C  0.80293132  0.60357754  0.58540523     0.19500
F4753       F  0.81141536  0.58619533  0.60725936    -0.13300
F4754       F  0.81557810  0.65052389  0.09796086    -0.15700
F4755       F  0.76713351  0.60251266  0.51180624    -0.15700
F4756       F  0.77484343  0.65912717  0.52190044    -0.13300
C4757       C  0.82177990  0.87477513  0.88257030     0.24700
C4758       C  0.83620054  0.89914979  0.89400125    -0.23400
C4759       C  0.85907624  0.89547767  0.91159235     0.19600
C4760       C  0.86497623  0.86860997  0.92202192     0.24600
C4761       C  0.84824610  0.84450486  0.91429802    -0.23400
C4762       C  0.82782024  0.84758762  0.89255844     0.19500
F4763       F  0.81198001  0.82510586  0.88338776    -0.13300
F4764       F  0.79984307  0.87776636  0.86446267    -0.15700
F4765       F  0.88558946  0.86724116  0.94233988    -0.15700
F4766       F  0.87364849  0.91850761  0.92207163    -0.13300
C4767       C  0.80682297  0.63099615  0.90408965     0.24700
C4768       C  0.81788244  0.64033185  0.93241662    -0.23400
C4769       C  0.82481348  0.61917949  0.95339203     0.19600
C4770       C  0.81856285  0.59035357  0.94742660     0.24600
C4771       C  0.80524962  0.58151600  0.92051661    -0.23400
C4772       C  0.80047422  0.60185129  0.89825233     0.19500
F4773       F  0.78719455  0.59389480  0.87195944    -0.13300
F4774       F  0.79994833  0.65018803  0.88329568    -0.15700
F4775       F  0.82299108  0.57158717  0.96947075    -0.15700
F4776       F  0.83647429  0.62640239  0.98088045    -0.13300
C4777       C  0.94107034  0.77747585  0.84780062     0.24700
C4778       C  0.93300456  0.80312870  0.83513121    -0.23400
C4779       C  0.92623664  0.82630606  0.85574065     0.19600
C4780       C  0.92700190  0.82348498  0.88776958     0.24600
C4781       C  0.93463221  0.79753922  0.90026605    -0.23400
C4782       C  0.94283598  0.77510570  0.87955143     0.19500
F4783       F  0.95293740  0.75051578  0.88982968    -0.13300
F4784       F  0.94826668  0.75460047  0.82927219    -0.15700
F4785       F  0.92186549  0.84673063  0.90653271    -0.15700
F4786       F  0.92032912  0.85224119  0.84513199    -0.13300
C4787       C  0.94957137  0.78540980  0.59976546     0.24700
C4788       C  0.93323816  0.80328755  0.58269001    -0.23400
C4789       C  0.91747488  0.82389453  0.59926322     0.19600
C4790       C  0.91782748  0.82572108  0.63173106     0.24600
C4791       C  0.93247620  0.80572479  0.64831938    -0.23400
C4792       C  0.94741433  0.78502592  0.63148779     0.19500
F4793       F  0.95976175  0.76363443  0.64569459    -0.13300
F4794       F  0.96632123  0.76616743  0.58569091    -0.15700
F4795       F  0.90396294  0.84705951  0.64675116    -0.15700
F4796       F  0.90168775  0.84219088  0.58426322    -0.13300
C4797       C  0.91401318  0.66947887  0.85570528     0.24700
C4798       C  0.89986024  0.64777187  0.83937296    -0.23400
C4799       C  0.88494045  0.62839212  0.85623563     0.19600
C4800       C  0.88449578  0.63115890  0.88865539     0.24600
C4801       C  0.90061218  0.65185819  0.90462977    -0.23400
C4802       C  0.91687130  0.66916757  0.88716233     0.19500
F4803       F  0.93527128  0.68707637  0.90036564    -0.13300
F4804       F  0.92660465  0.69057356  0.84122043    -0.15700
F4805       F  0.86969386  0.61264813  0.90424288    -0.15700
F4806       F  0.87097659  0.60684916  0.84153278    -0.13300
C4807       C  0.88804811  0.62813738  0.60851658     0.24700
C4808       C  0.88578155  0.65620930  0.59963989    -0.23400
C4809       C  0.87838608  0.67789678  0.62164112     0.19600
C4810       C  0.87776684  0.67270447  0.65255519     0.24600
C4811       C  0.88409970  0.64560677  0.66213638    -0.24600
C4812       C  0.88695329  0.62277646  0.63976926     0.19500
F4813       F  0.89162909  0.59587704  0.64811219    -0.13300
F4814       F  0.89362931  0.60656699  0.58755178    -0.15700
F4815       F  0.87335911  0.69476953  0.67335330    -0.15700
F4816       F  0.87356106  0.70485298  0.61333037    -0.13300
C4817       C  0.65491320  0.87234338  0.95957710     0.24700
C4818       C  0.66530677  0.84713399  0.94420447    -0.23400
C4819       C  0.68164205  0.85039441  0.91872505     0.19600
C4820       C  0.68858513  0.87788544  0.91004647     0.24600
C4821       C  0.67936123  0.90289460  0.92653078    -0.23400
C4822       C  0.66172794  0.89972751  0.95067663     0.19500
F4823       F  0.65295867  0.92307865  0.96742921    -0.13300
F4824       F  0.63884765  0.87076960  0.98431720    -0.15700
F4825       F  0.70604038  0.88013615  0.88664948    -0.15700
F4826       F  0.69245108  0.82714785  0.90354522    -0.13300
C4827       C  0.62074403  0.59263481  0.91628382     0.24700
C4828       C  0.64352548  0.58905487  0.89818477    -0.23400
C4829       C  0.65645087  0.61371645  0.88805764     0.19600
C4830       C  0.64942233  0.64110876  0.89978357     0.24600
C4831       C  0.62884935  0.64454797  0.92132200    -0.23400
C4832       C  0.61325437  0.62003827  0.92754109     0.19500
F4833       F  0.59158421  0.62206121  0.94614647    -0.13300
F4834       F  0.60748923  0.56950670  0.92587942    -0.15700
F4835       F  0.66407733  0.66386001  0.89170160    -0.15700
F4836       F  0.67785821  0.61103748  0.86908272    -0.13300
C4837       C  0.68909205  0.84872172  0.53183869     0.24700
C4838       C  0.67406719  0.83872634  0.55605491    -0.23400
C4839       C  0.66703023  0.85815471  0.58024780     0.19600
C4840       C  0.67246735  0.88737754  0.57870411     0.24600
C4841       C  0.68474598  0.89790008  0.55268030    -0.23400
C4842       C  0.69367677  0.87793900  0.52966181     0.19500
F4843       F  0.70575499  0.88668145  0.50414479    -0.13300
F4844       F  0.69579063  0.83056870  0.50783327    -0.15700
F4845       F  0.66549071  0.90525473  0.60266430    -0.15700
F4846       F  0.65250048  0.84915695  0.60399044    -0.13300
C4847       C  0.64027981  0.64204561  0.58453158     0.24700
C4848       C  0.62385344  0.64279904  0.55843159    -0.23400
C4849       C  0.61333067  0.61654192  0.54562475     0.19600
C4850       C  0.62137086  0.59036183  0.55670120     0.24600
C4851       C  0.64037245  0.58968641  0.58037699    -0.23400
C4852       C  0.64886463  0.61588853  0.59494329     0.19500
F4853       F  0.66737103  0.61630598  0.61788223    -0.13300
F4854       F  0.64924184  0.66655162  0.59918749    -0.15700
F4855       F  0.61282234  0.56574119  0.54194976    -0.15700
F4856       F  0.59655718  0.61576632  0.52097658    -0.13300
C4857       C  0.56361583  0.87589461  0.86725725     0.24700
C4858       C  0.57979126  0.86334739  0.84376886    -0.23400
C4859       C  0.60306288  0.84868829  0.85184258     0.19600
C4860       C  0.60765922  0.84322030  0.88275104     0.24600
C4861       C  0.58894586  0.85232257  0.90546509    -0.23400
C4862       C  0.56807604  0.87028584  0.89770451     0.19500
F4863       F  0.54928597  0.87831140  0.91875885    -0.13300
F4864       F  0.54034682  0.88913240  0.86024472    -0.15700
F4865       F  0.62808911  0.82554646  0.88976662    -0.15700
F4866       F  0.61906544  0.83637358  0.82986354    -0.13300
C4867       C  0.58649983  0.86131867  0.63630030     0.24700
C4868       C  0.57223375  0.84137063  0.65288174    -0.23400
C4869       C  0.55870868  0.81936400  0.63630044     0.19600
C4870       C  0.55351893  0.82127802  0.60547079     0.24600
C4871       C  0.56869204  0.83939104  0.58807565    -0.23400
C4872       C  0.58570680  0.85952588  0.60384824     0.19500
F4873       F  0.60069204  0.87782719  0.58812845    -0.13300
F4874       F  0.60192003  0.88142201  0.65130785    -0.15700
F4875       F  0.53452237  0.80379409  0.59254706    -0.15700
F4876       F  0.54914672  0.79626516  0.65018496    -0.13300
C4877       C  0.56747149  0.67264598  0.83681609     0.24700
C4878       C  0.54992647  0.64939126  0.83521603    -0.23400
C4879       C  0.54325842  0.63631917  0.86250261     0.19600
C4880       C  0.54936867  0.64977980  0.89104415     0.24600
C4881       C  0.56279892  0.67610332  0.89252019    -0.23400
C4882       C  0.57401867  0.68587688  0.86534454     0.19500
F4883       F  0.58977794  0.70953989  0.86617321    -0.13300
F4884       F  0.57556609  0.68463001  0.81091075    -0.15700
F4885       F  0.53975602  0.63858745  0.91673119    -0.15700
F4886       F  0.52784980  0.61236077  0.86139126    -0.13300
C4887       C  0.55529212  0.66609749  0.63548911     0.24700
C4888       C  0.53139826  0.65098015  0.63869666    -0.23400
C4889       C  0.51598618  0.64320248  0.61207014     0.19600
C4890       C  0.52207415  0.65415628  0.58391761     0.24600
C4891       C  0.54410613  0.67215884  0.58174023    -0.23400
C4892       C  0.56161368  0.67661778  0.60710177     0.19500
F4893       F  0.58371766  0.69328260  0.60493205    -0.13300
F4894       F  0.57103700  0.67307546  0.66021155    -0.15700
F4895       F  0.50497892  0.64962593  0.55982058    -0.15700
F4896       F  0.49356895  0.62692706  0.61385465    -0.13300
loop_ 
_geom_bond_atom_site_label_1 
_geom_bond_atom_site_label_2 
_geom_bond_distance 
_geom_bond_site_symmetry_2 
_ccdc_geom_bond_type 
O1          Zr13   2.564       .  S
O1            C3   1.312       .  A
O2         Zr651   2.329   1_554  S
O2            C3   1.268       .  A
C3          C564   1.502       .  S
O4          Zr16   2.409       .  S
O4            C6   1.270       .  A
O5          Zr40   2.451   1_554  S
O5            C6   1.281       .  A
C6          C587   1.494       .  S
O7          Zr16   2.412       .  S
O7            C9   1.280       .  A
O8         Zr651   2.417   1_554  S
O8            C9   1.281       .  A
C9          C607   1.462       .  S
O10         Zr13   2.527       .  S
O10          C12   1.304       .  A
O11         Zr40   2.357   1_554  S
O11          C12   1.275       .  A
C12         C554   1.486       .  S
Zr13         O14   2.435       .  S
Zr13         O15   2.437       .  S
Zr13         O19   2.269       .  S
Zr13         O20   2.388       .  S
Zr13        O655   2.396   1_554  S
Zr13        O657   2.381   1_554  S
O14          H57   0.990       .  S
O15          H56   0.990       .  S
O15          H60   0.990       .  S
Zr16         O17   2.444       .  S
Zr16         O18   2.436       .  S
Zr16         O19   2.258       .  S
Zr16         O20   2.391       .  S
Zr16         O44   2.387   1_554  S
Zr16         O46   2.399   1_554  S
O17          H58   0.989       .  S
O17          H61   0.989       .  S
O18          H51   0.990       .  S
O19        Zr651   2.235   1_554  S
O20         Zr40   2.418   1_554  S
O20          H47   0.965       .  S
O21         Zr33   2.542       .  S
O21          C23   1.307       .  A
O22        Zr652   2.348       .  S
O22          C23   1.271       .  A
C23         C534   1.500       .  S
O24         Zr36   2.381       .  S
O24          C26   1.275       .  A
O25         Zr39   2.409       .  S
O25          C26   1.280       .  A
C26         C597   1.454       .  S
O27         Zr36   2.420       .  S
O27          C29   1.281       .  A
O28        Zr652   2.474       .  S
O28          C29   1.292       .  A
C29         C577   1.481       .  S
O30         Zr33   2.518       .  S
O30          C32   1.302       .  A
O31         Zr39   2.379       .  S
O31          C32   1.277       .  A
C32         C547   1.488       .  S
Zr33         O34   2.440       .  S
Zr33         O35   2.435       .  S
Zr33         O42   2.301       .  S
Zr33         O41   2.364       .  S
Zr33         O45   2.373       .  S
Zr33         O43   2.357       .  S
O34          H54   0.990       .  S
O34          H59   0.987       .  S
O35          H55   0.990       .  S
Zr36         O37   2.436       .  S
Zr36         O38   2.438   1_455  S
Zr36         O42   2.287       .  S
Zr36         O41   2.365       .  S
Zr36        O658   2.358       .  S
Zr36        O656   2.373       .  S
O37          H53   0.991       .  S
O38          H52   0.989       .  S
O38          H62   0.989       .  S
Zr39        O614   2.333       .  S
Zr39        O620   2.452       .  S
Zr39         O42   2.260       .  S
Zr39         O45   2.400       .  S
Zr39        O631   2.368       .  S
Zr39        O656   2.375       .  S
Zr40        O634   2.390       .  S
Zr40        O640   2.460       .  S
Zr40         O46   2.389       .  S
Zr40        O653   2.377       .  S
Zr40        O655   2.415       .  S
O41        Zr652   2.374       .  S
O41          H49   0.959       .  S
O43        Zr625   2.404       .  S
O43        Zr652   2.411       .  S
O44        Zr648   2.388       .  S
O44        Zr651   2.364       .  S
O44          H48   0.966       .  S
O45        Zr625   2.367       .  S
O45          H50   0.965       .  S
O46        Zr648   2.356       .  S
O63         Zr75   2.429       .  S
O63          C65   1.282       .  A
O64        Zr713   2.496   1_554  S
O64          C65   1.295       .  A
C65         C524   1.497       .  S
O66         Zr78   2.550       .  S
O66          C68   1.310       .  A
O67        Zr714   2.348   1_554  S
O67          C68   1.273       .  A
C68         C454   1.497       .  S
O69         Zr78   2.573       .  S
O69          C71   1.313       .  A
O70        Zr101   2.375       .  S
O70         C683   1.278       .  A
C71         O682   1.271       .  A
C71         C464   1.510       .  S
O72         Zr75   2.418       .  S
O72          C74   1.271       .  A
O73        Zr714   2.483   1_554  S
O73          C74   1.288       .  A
C74         C504   1.502       .  S
Zr75         O76   2.442       .  S
Zr75         O77   2.433   1_554  S
Zr75         O81   2.375       .  S
Zr75         O82   2.407       .  S
Zr75        O717   2.385   1_554  S
Zr75        O719   2.374   1_554  S
O76         H119   0.989       .  S
O77         H118   0.989   1_556  S
O77         H122   0.990       .  S
Zr78         O79   2.436       .  S
Zr78         O80   2.435       .  S
Zr78         O82   2.365       .  S
Zr78         O81   2.367       .  S
Zr78        O718   2.360       .  S
Zr78        O720   2.386   1_554  S
O79         H120   0.990       .  S
O79         H123   0.990       .  S
O80         H113   0.990       .  S
O81        Zr713   2.340   1_554  S
O82        Zr714   2.360   1_554  S
O82         H109   0.951       .  S
O83         Zr95   2.424       .  S
O83          C85   1.285       .  A
O84        Zr102   2.481       .  S
O84          C85   1.296       .  A
C85         C497   1.485       .  S
O86         Zr98   2.529       .  S
O86          C88   1.307       .  A
O87        Zr101   2.375       .  S
O87          C88   1.277       .  A
C88         C484   1.509       .  S
O89         Zr98   2.593       .  S
O89          C91   1.318       .  A
O90        Zr102   2.328       .  S
O90          C91   1.268       .  A
C91         C477   1.493       .  S
O92         Zr95   2.394       .  S
O92          C94   1.267       .  A
O93        Zr101   2.476       .  S
O93          C94   1.289       .  A
C94         C517   1.490       .  S
Zr95         O96   2.433       .  S
Zr95         O97   2.433       .  S
Zr95        O103   2.356       .  S
Zr95        O104   2.392       .  S
Zr95        O107   2.416       .  S
Zr95        O105   2.375       .  S
O96         H116   0.988       .  S
O96         H121   0.988       .  S
O97         H117   0.990       .  S
Zr98         O99   2.434       .  S
Zr98        O100   2.435       .  S
Zr98        O104   2.403       .  S
Zr98        O103   2.333       .  S
Zr98        O108   2.364       .  S
Zr98        O106   2.375       .  S
O99         H115   0.990       .  S
O100        H114   0.990       .  S
O100        H124   0.990       .  S
Zr101       O676   2.497       .  S
Zr101       O693   2.244       .  S
Zr101       O104   2.391       .  S
Zr101       O106   2.416       .  S
Zr101       O107   2.386       .  S
Zr102       O679   2.383       .  S
Zr102       O685   2.466       .  S
Zr102       O103   2.349       .  S
Zr102       O105   2.366       .  S
Zr102       O108   2.418       .  S
Zr102       O694   2.387       .  S
O103        H111   0.956       .  S
O105       Zr687   2.365       .  S
O106       Zr690   2.376       .  S
O106        H110   0.965       .  S
O107       Zr687   2.349       .  S
O107        H112   0.967       .  S
O108       Zr690   2.392       .  S
O125       Zr137   2.552       .  S
O125        C127   1.310       .  A
O126      Zr1387   2.336   1_545  S
O126        C127   1.271       .  A
C127        C447   1.489       .  S
O128       Zr140   2.397       .  S
O128        C130   1.277       .  A
O129       Zr164   2.523   1_545  S
O129        C130   1.304       .  A
C130        C467   1.489       .  S
O131       Zr140   2.396       .  S
O131        C133   1.273       .  A
O132      Zr1387   2.501   1_545  S
O132        C133   1.299       .  A
C133        C567   1.486       .  S
O134       Zr137   2.526       .  S
O134        C136   1.295       .  A
O135       Zr164   2.372   1_545  S
O135        C136   1.258       .  A
C136        C437   1.500       .  S
Zr137       O138   2.433       .  S
Zr137       O139   2.425       .  S
Zr137       O143   2.378       .  S
Zr137       O144   2.392       .  S
Zr137       O167   2.387   1_545  S
Zr137      O1393   2.350   1_545  S
O138        H181   0.990       .  S
O139        H180   0.990       .  S
O139        H184   0.990       .  S
Zr140       O141   2.442       .  S
Zr140       O142   2.429       .  S
Zr140       O144   2.369       .  S
Zr140       O143   2.372       .  S
Zr140       O168   2.387   1_545  S
Zr140       O170   2.386   1_545  S
O141        H182   0.991       .  S
O141        H185   0.990       .  S
O142        H175   0.989       .  S
O143      Zr1387   2.364   1_545  S
O144       Zr164   2.397   1_545  S
O144        H171   0.961       .  S
O145       Zr157   2.582       .  S
O145        C147   1.317       .  A
O146      Zr1388   2.315       .  S
O146        C147   1.270       .  A
C147        C417   1.482       .  S
O148       Zr160   2.399       .  S
O148        C150   1.276       .  A
O149       Zr163   2.469       .  S
O149        C150   1.292       .  A
C150        C557   1.475       .  S
O151       Zr160   2.405       .  S
O151        C153   1.280       .  A
O152      Zr1388   2.496       .  S
O152        C153   1.299       .  A
C153        C457   1.486       .  S
O154       Zr157   2.557       .  S
O154        C156   1.311       .  A
O155       Zr163   2.356       .  S
O155        C156   1.273       .  A
C156        C427   1.516       .  S
Zr157       O158   2.434       .  S
Zr157       O159   2.429       .  S
Zr157       O165   2.361       .  S
Zr157       O166   2.383       .  S
Zr157       O169   2.377       .  S
Zr157      O1391   2.362       .  S
O158        H178   0.990       .  S
O158        H183   0.990       .  S
O159        H179   0.990       .  S
Zr160       O161   2.434       .  S
Zr160       O162   2.430       .  S
Zr160       O166   2.371       .  S
Zr160       O165   2.371       .  S
Zr160      O1394   2.362       .  S
Zr160      O1392   2.384       .  S
O161        H177   0.991       .  S
O162        H176   0.990       .  S
O162        H186   0.987       .  S
Zr163      O1350   2.356       .  S
Zr163      O1356   2.471       .  S
Zr163       O166   2.365       .  S
Zr163       O169   2.409       .  S
Zr163      O1367   2.359       .  S
Zr163      O1392   2.387       .  S
Zr164      O1370   2.347       .  S
Zr164      O1376   2.498       .  S
Zr164       O167   2.422       .  S
Zr164       O170   2.371       .  S
Zr164      O1389   2.379       .  S
O165      Zr1388   2.381       .  S
O165        H173   0.961       .  S
O167      Zr1381   2.369       .  S
O168      Zr1384   2.385       .  S
O168      Zr1387   2.371       .  S
O168        H172   0.966   1_565  S
O169      Zr1361   2.382       .  S
O169        H174   0.966       .  S
O170      Zr1384   2.373       .  S
O187       Zr199   2.416       .  S
O187        C189   1.280       .  A
O188      Zr1449   2.462   1_545  S
O188        C189   1.292       .  A
C189        C544   1.506       .  S
O190       Zr202   2.587       .  S
O190        C192   1.319       .  A
O191      Zr1450   2.340   1_545  S
O191        C192   1.275       .  A
C192        C394   1.497       .  S
O193       Zr202   2.567       .  S
O193        C195   1.313       .  A
O194      Zr1449   2.357   1_545  S
O194        C195   1.272       .  A
C195        C407   1.517       .  S
O196       Zr199   2.397       .  S
O196        C198   1.277       .  A
O197      Zr1450   2.515   1_545  S
O197        C198   1.302       .  A
C198        C487   1.488       .  S
Zr199       O200   2.438       .  S
Zr199       O201   2.450       .  S
Zr199       O205   2.285       .  S
Zr199       O206   2.372       .  S
Zr199      O1453   2.362   1_545  S
Zr199      O1455   2.385   1_545  S
O200        H243   0.991       .  S
O201        H242   0.989       .  S
O201        H246   0.989   1_545  S
Zr202       O203   2.436       .  S
Zr202       O204   2.420       .  S
Zr202       O205   2.292       .  S
Zr202       O206   2.357       .  S
Zr202      O1454   2.375   1_545  S
Zr202      O1456   2.371   1_545  S
O203        H244   0.990       .  S
O203        H247   0.989       .  S
O204        H237   0.990       .  S
O205      Zr1449   2.244   1_545  S
O206      Zr1450   2.378   1_545  S
O206        H233   0.957       .  S
O207       Zr219   2.417       .  S
O207        C209   1.275       .  A
O208       Zr226   2.494       .  S
O208        C209   1.294       .  A
C209        C474   1.516       .  S
O210       Zr222   2.579       .  S
O210        C212   1.316       .  A
O211       Zr225   2.340       .  S
O211        C212   1.271       .  A
C212        C387   1.496       .  S
O213       Zr222   2.572       .  S
O213        C215   1.315       .  A
O214       Zr226   2.346       .  S
O214        C215   1.271       .  A
C215        C374   1.517       .  S
O216       Zr219   2.373       .  S
O216        C218   1.266       .  A
O217       Zr225   2.516       .  S
O217        C218   1.299       .  A
C218        C537   1.497       .  S
Zr219       O220   2.437       .  S
Zr219       O221   2.443       .  S
Zr219       O228   2.263       .  S
Zr219       O227   2.376       .  S
Zr219       O231   2.392       .  S
Zr219       O229   2.383       .  S
O220        H240   0.990       .  S
O220        H245   0.990       .  S
O221        H241   0.990       .  S
Zr222       O223   2.434       .  S
Zr222       O224   2.430       .  S
Zr222       O228   2.269       .  S
Zr222       O227   2.383       .  S
Zr222       O232   2.365       .  S
Zr222       O230   2.374       .  S
O223        H239   0.990       .  S
O224        H238   0.990       .  S
O224        H248   0.990       .  S
Zr225      O1412   2.485       .  S
Zr225      O1418   2.354       .  S
Zr225       O228   2.237       .  S
Zr225       O230   2.422       .  S
Zr225       O231   2.377       .  S
Zr225      O1429   2.365       .  S
Zr226      O1415   2.368       .  S
Zr226      O1421   2.469       .  S
Zr226       O227   2.392       .  S
Zr226       O229   2.384       .  S
Zr226       O232   2.418       .  S
Zr226      O1430   2.382       .  S
O227        H235   0.964       .  S
O229      Zr1423   2.398       .  S
O230      Zr1426   2.380       .  S
O230        H234   0.966       .  S
O231      Zr1423   2.381       .  S
O231        H236   0.965       .  S
O232      Zr1426   2.372       .  S
O249      Zr2709   2.558   1_455  S
O249        C251   1.310       .  A
O250       Zr287   2.296       .  S
O250        C251   1.262       .  A
C251        C444   1.478       .  S
O252       Zr264   2.403       .  S
O252        C254   1.276       .  A
O253       Zr288   2.497       .  S
O253        C254   1.297       .  A
C254        C527   1.484       .  S
O255      Zr2712   2.380   1_455  S
O255        C257   1.273       .  A
O256       Zr287   2.447       .  S
O256        C257   1.286       .  A
C257        C604   1.466       .  S
O258       Zr261   2.562       .  S
O258        C260   1.312       .  A
O259       Zr288   2.322       .  S
O259        C260   1.267       .  A
C260        C434   1.508       .  S
Zr261      O2697   2.538       .  S
Zr261       O262   2.434       .  S
Zr261       O263   2.434       .  S
Zr261      O2715   2.301       .  S
Zr261       O268   2.359       .  S
Zr261       O291   2.360       .  S
Zr261      O2741   2.370       .  S
O262       H2753   0.990       .  S
O263        H308   0.990       .  S
O263       H2752   0.990       .  S
Zr264      O2703   2.390       .  S
Zr264       O265   2.450       .  S
Zr264       O266   2.440       .  S
Zr264      O2715   2.283       .  S
Zr264       O268   2.379       .  S
Zr264       O294   2.376       .  S
Zr264      O2740   2.372       .  S
O265        H306   0.990       .  S
O265        H309   0.990       .  S
O266        H299   0.990       .  S
O267       Zr287   2.248       .  S
O267      Zr2709   2.290   1_455  S
O267      Zr2712   2.280   1_455  S
O268       Zr288   2.375       .  S
O268        H295   0.958       .  S
O269       Zr281   2.563       .  S
O269        C271   1.312       .  A
O270       Zr288   2.373       .  S
O270        C271   1.276       .  A
C271        C397   1.511       .  S
O272      Zr2732   2.422   1_455  S
O272        C274   1.274       .  A
O273       Zr287   2.414       .  S
O273        C274   1.272       .  A
C274        C594   1.466       .  S
O275       Zr284   2.412       .  S
O275        C277   1.273       .  A
O276       Zr288   2.446       .  S
O276        C277   1.281       .  A
C277        C514   1.500       .  S
O278      Zr2729   2.581   1_455  S
O278        C280   1.315       .  A
O279       Zr287   2.339       .  S
O279        C280   1.269       .  A
C280        C404   1.519       .  S
Zr281      O2726   2.579       .  S
Zr281       O282   2.435       .  S
Zr281       O283   2.436       .  S
Zr281      O2738   2.289       .  S
Zr281       O289   2.394       .  S
Zr281       O291   2.372       .  S
Zr281      O2741   2.362       .  S
O282        H302   0.990       .  S
O282        H307   0.990       .  S
O283        H303   0.990       .  S
Zr284      O2720   2.414       .  S
Zr284       O285   2.435       .  S
Zr284       O286   2.439       .  S
Zr284      O2738   2.278       .  S
Zr284       O289   2.391       .  S
Zr284       O294   2.401       .  S
Zr284      O2740   2.399       .  S
O285        H301   0.988       .  S
O286        H300   0.991       .  S
O286        H310   0.990       .  S
Zr287       O290   2.245       .  S
Zr287       O292   2.363       .  S
Zr287       O293   2.400       .  S
Zr288       O289   2.415       .  S
Zr288       O291   2.408       .  S
Zr288       O294   2.380       .  S
O289        H297   0.965       .  S
O290      Zr2729   2.283   1_455  S
O290      Zr2732   2.270   1_455  S
O292      Zr2712   2.387   1_455  S
O292      Zr2732   2.397   1_455  S
O292        H296   0.966       .  S
O293      Zr2709   2.364   1_455  S
O293      Zr2729   2.377   1_455  S
O293        H298   0.965       .  S
H304       O2711   0.989       .  S
H305       O2710   0.990       .  S
O311      Zr2771   2.405       .  S
O311        C313   1.269   1_655  A
O312       Zr349   2.452       .  S
O312        C313   1.281       .  A
C313        C584   1.492       .  S
O314       Zr326   2.595       .  S
O314        C316   1.320       .  A
O315       Zr350   2.305       .  S
O315        C316   1.265       .  A
C316        C414   1.493       .  S
O317      Zr2774   2.551   1_455  S
O317        C319   1.311       .  A
O318       Zr349   2.377       .  S
O318        C319   1.276       .  A
C319        C424   1.516       .  S
O320       Zr323   2.428       .  S
O320        C322   1.277       .  A
O321       Zr350   2.453       .  S
O321        C322   1.278       .  A
C322        C507   1.503       .  S
Zr323      O2759   2.398       .  S
Zr323       O324   2.435       .  S
Zr323       O325   2.435       .  S
Zr323      O2777   2.300       .  S
Zr323       O330   2.364       .  S
Zr323       O353   2.397       .  S
Zr323      O2803   2.412       .  S
O324       H2815   0.989       .  S
O325        H366   0.990       .  S
O325        H370   0.990       .  S
Zr326      O2765   2.558       .  S
Zr326       O327   2.436       .  S
Zr326       O328   2.435       .  S
Zr326      O2777   2.306       .  S
Zr326       O330   2.333       .  S
Zr326       O356   2.381       .  S
Zr326      O2802   2.366       .  S
O327        H368   0.990       .  S
O327        H371   0.990       .  S
O328       H2809   0.990       .  S
O329       Zr349   2.379   1_655  S
O329      Zr2771   2.379       .  S
O329      Zr2774   2.391       .  S
O330       Zr350   2.395       .  S
O330        H357   0.953       .  S
O331       Zr343   2.400       .  S
O331        C333   1.278       .  A
O332       Zr350   2.459       .  S
O332        C333   1.290       .  A
C333        C494   1.468       .  S
O334      Zr2794   2.558   1_455  S
O334        C336   1.311       .  A
O335       Zr349   2.350       .  S
O335        C336   1.271       .  A
C336        C384   1.490       .  S
O337       Zr346   2.562       .  S
O337        C339   1.312       .  A
O338       Zr350   2.348       .  S
O338        C339   1.271       .  A
C339        C377   1.510       .  S
O340      Zr2791   2.399       .  S
O340        C342   1.280   1_655  A
O341       Zr349   2.478       .  S
O341        C342   1.296       .  A
C342        C574   1.485       .  S
Zr343      O2788   2.389       .  S
Zr343       O344   2.442       .  S
Zr343       O345   2.441       .  S
Zr343      O2800   2.283       .  S
Zr343       O351   2.379       .  S
Zr343       O353   2.372       .  S
Zr343      O2803   2.364       .  S
O344        H364   0.990       .  S
O344        H369   0.991       .  S
O345        H365   0.990       .  S
Zr346      O2782   2.534       .  S
Zr346       O347   2.434       .  S
Zr346       O348   2.436       .  S
Zr346      O2800   2.299       .  S
Zr346       O351   2.370       .  S
Zr346       O356   2.362       .  S
Zr346      O2802   2.372       .  S
O347        H363   0.990       .  S
O348        H362   0.990       .  S
O348        H372   0.990       .  S
Zr349       O352   2.253   1_455  S
Zr349       O354   2.409   1_455  S
Zr349       O355   2.382   1_455  S
Zr350       O351   2.376       .  S
Zr350       O353   2.380       .  S
Zr350       O356   2.410       .  S
O351        H359   0.963       .  S
O352      Zr2791   2.277       .  S
O352      Zr2794   2.278       .  S
O354      Zr2774   2.390       .  S
O354      Zr2794   2.369       .  S
O354        H358   0.965   1_655  S
O355      Zr2771   2.412       .  S
O355      Zr2791   2.367       .  S
O355        H360   0.966       .  S
H361       O2776   0.990       .  S
H367       O2772   0.988       .  S
C373        C374   1.400       .  A
C373        C378   1.408       .  A
C373        F380   1.357       .  S
C374        C375   1.433       .  A
C375        C376   1.409       .  A
C375        F382   1.358       .  S
C376        C377   1.399       .  A
C376        F381   1.358       .  S
C377        C378   1.427       .  A
C378        F379   1.356       .  S
C383        C384   1.402       .  A
C383        C388   1.405       .  A
C383        F390   1.357       .  S
C384        C385   1.415       .  A
C385        C386   1.418       .  A
C385        F392   1.358       .  S
C386        C387   1.411       .  A
C386        F391   1.358       .  S
C387        C388   1.409       .  A
C388        F389   1.347       .  S
C393        C394   1.395       .  A
C393        C398   1.403       .  A
C393        F400   1.356       .  S
C394        C395   1.422       .  A
C395        C396   1.416       .  A
C395        F402   1.358   1_545  S
C396        C397   1.407       .  A
C396        F401   1.358       .  S
C397        C398   1.419       .  A
C398        F399   1.348       .  S
C403        C404   1.435       .  A
C403        C408   1.406       .  A
C403        F410   1.358       .  S
C404        C405   1.400       .  A
C405        C406   1.411       .  A
C405        F412   1.357       .  S
C406        C407   1.431       .  A
C406        F411   1.355       .  S
C407        C408   1.398       .  A
C408        F409   1.358       .  S
C413        C414   1.425       .  A
C413        C418   1.402       .  A
C413        F420   1.352       .  S
C414        C415   1.406       .  A
C415        C416   1.412       .  A
C415        F422   1.358       .  S
C416        C417   1.417       .  A
C416        F421   1.356       .  S
C417        C418   1.394       .  A
C418        F419   1.355       .  S
C423        C424   1.430       .  A
C423        C428   1.412       .  A
C423        F430   1.358       .  S
C424        C425   1.400       .  A
C425        C426   1.405       .  A
C425        F432   1.357       .  S
C426        C427   1.429       .  A
C426        F431   1.358       .  S
C427        C428   1.402       .  A
C428        F429   1.357       .  S
C433        C434   1.434       .  A
C433        C438   1.401       .  A
C433        F440   1.358       .  S
C434        C435   1.398       .  A
C435        C436   1.405       .  A
C435        F442   1.358       .  S
C436        C437   1.426       .  A
C436        F441   1.354       .  S
C437        C438   1.393       .  A
C438        F439   1.358       .  S
C443        C444   1.399       .  A
C443        C448   1.402       .  A
C443        F450   1.352       .  S
C444        C445   1.421       .  A
C445        C446   1.411       .  A
C445        F452   1.358       .  S
C446        C447   1.404       .  A
C446        F451   1.358       .  S
C447        C448   1.416       .  A
C448        F449   1.359       .  S
C453        C454   1.427       .  A
C453        C458   1.406       .  A
C453        F460   1.357       .  S
C454        C455   1.397       .  A
C455        C456   1.401       .  A
C455        F462   1.357       .  S
C456        C457   1.417       .  A
C456        F461   1.358       .  S
C457        C458   1.395       .  A
C458        F459   1.358       .  S
C463        C464   1.428       .  A
C463        C468   1.401       .  A
C463       F1082   1.355       .  S
C464        C465   1.401       .  A
C465        C466   1.415       .  A
C465        F472   1.357       .  S
C466        C467   1.422       .  A
C466        F471   1.358       .  S
C467        C468   1.392       .  A
C468        F469   1.358       .  S
F470       C1075   1.357       .  S
C473        C474   1.413       .  A
C473        C478   1.416       .  A
C473        F480   1.357       .  S
C474        C475   1.416       .  A
C475        C476   1.409       .  A
C475        F482   1.357       .  S
C476        C477   1.411       .  A
C476        F481   1.358       .  S
C477        C478   1.414       .  A
C478        F479   1.356       .  S
C483        C484   1.401       .  A
C483        C488   1.402       .  A
C483        F490   1.358       .  S
C484        C485   1.429       .  A
C485        C486   1.408       .  A
C485        F492   1.358       .  S
C486        C487   1.396       .  A
C486        F491   1.357       .  S
C487        C488   1.418       .  A
C488        F489   1.354       .  S
C493        C494   1.394       .  A
C493        C498   1.394       .  A
C493        F500   1.359       .  S
C494        C495   1.416       .  A
C495        C496   1.408       .  A
C495        F502   1.355       .  S
C496        C497   1.399       .  A
C496        F501   1.357       .  S
C497        C498   1.416       .  A
C498        F499   1.354       .  S
C503        C504   1.415       .  A
C503        C508   1.394       .  A
C503        F510   1.345       .  S
C504        C505   1.397       .  A
C505        C506   1.406       .  A
C505        F512   1.357       .  S
C506        C507   1.424       .  A
C506        F511   1.346       .  S
C507        C508   1.394       .  A
C508        F509   1.356       .  S
C513        C514   1.407       .  A
C513        C518   1.396       .  A
C513        F520   1.353       .  S
C514        C515   1.409       .  A
C515        C516   1.404       .  A
C515        F522   1.346       .  S
C516        C517   1.404       .  A
C516        F521   1.353       .  S
C517        C518   1.410       .  A
C518        F519   1.356       .  S
C523        C524   1.401       .  A
C523        C528   1.411       .  A
C523        F530   1.357       .  S
C524        C525   1.415       .  A
C525        C526   1.402       .  A
C525        F532   1.354       .  S
C526        C527   1.397       .  A
C526        F531   1.357       .  S
C527        C528   1.421       .  A
C528        F529   1.356       .  S
C533        C534   1.428       .  A
C533        C538   1.405       .  A
C533        F540   1.358       .  S
C534        C535   1.397       .  A
C535        C536   1.402       .  A
C535        F542   1.357       .  S
C536        C537   1.422       .  A
C536        F541   1.358       .  S
C537        C538   1.398       .  A
C538        F539   1.358       .  S
C543        C544   1.420       .  A
C543        C548   1.406       .  A
C543        F550   1.356       .  S
C544        C545   1.407       .  A
C545        C546   1.403       .  A
C545        F552   1.353       .  S
C546        C547   1.411       .  A
C546        F551   1.355       .  S
C547        C548   1.403       .  A
C548        F549   1.358       .  S
C553        C554   1.414       .  A
C553        C558   1.397       .  A
C553        F560   1.359   1_554  S
C554        C555   1.404       .  A
C555        C556   1.409       .  A
C555        F562   1.357       .  S
C556        C557   1.413       .  A
C556        F561   1.356       .  S
C557        C558   1.398       .  A
C558        F559   1.356       .  S
C563        C564   1.402       .  A
C563        C568   1.411       .  A
C563        F570   1.356       .  S
C564        C565   1.427       .  A
C565        C566   1.402       .  A
C565        F572   1.359   1_554  S
C566        C567   1.396       .  A
C566        F571   1.359       .  S
C567        C568   1.418       .  A
C568        F569   1.358       .  S
C573        C574   1.417       .  A
C573        C578   1.403       .  A
C573        F580   1.358       .  S
C574        C575   1.400       .  A
C575        C576   1.402       .  A
C575        F582   1.358       .  S
C576        C577   1.415       .  A
C576        F581   1.358       .  S
C577        C578   1.397       .  A
C578        F579   1.357       .  S
C583        C584   1.412       .  A
C583        C588   1.407       .  A
C583        F590   1.356       .  S
C584        C585   1.408       .  A
C585        C586   1.394       .  A
C585        F592   1.358   1_455  S
C586        C587   1.411       .  A
C586        F591   1.356   1_455  S
C587        C588   1.410       .  A
C588        F589   1.357       .  S
C593        C594   1.393       .  A
C593        C598   1.389       .  A
C593        F600   1.357       .  S
C594        C595   1.413       .  A
C595        C596   1.394       .  A
C595        F602   1.341       .  S
C596        C597   1.388       .  A
C596        F601   1.358       .  S
C597        C598   1.409       .  A
C598        F599   1.354       .  S
C603        C604   1.400       .  A
C603        C608   1.397       .  A
C603        F610   1.358       .  S
C604        C605   1.415       .  A
C605        C606   1.395       .  A
C605        F612   1.358       .  S
C606        C607   1.395       .  A
C606        F611   1.358       .  S
C607        C608   1.409       .  A
C608        F609   1.359       .  S
O613       Zr625   2.576       .  S
O613        C615   1.314       .  A
O614        C615   1.270       .  A
C615       C1176   1.506       .  S
O616       Zr628   2.437       .  S
O616        C618   1.280       .  A
O617       Zr652   2.414       .  S
O617        C618   1.274       .  A
C618       C1199   1.485       .  S
O619       Zr628   2.429       .  S
O619        C621   1.276       .  A
O620        C621   1.280       .  A
C621       C1219   1.495       .  S
O622       Zr625   2.510       .  S
O622        C624   1.301       .  A
O623       Zr652   2.369       .  S
O623        C624   1.276       .  A
C624       C1166   1.471       .  S
Zr625       O626   2.434       .  S
Zr625       O627   2.438       .  S
Zr625       O631   2.361       .  S
Zr625       O632   2.395       .  S
O626        H669   0.990       .  S
O627        H668   0.990       .  S
O627        H672   0.990       .  S
Zr628       O629   2.452       .  S
Zr628       O630   2.437   1_455  S
Zr628       O632   2.380       .  S
Zr628       O631   2.374       .  S
Zr628       O656   2.412       .  S
Zr628       O658   2.399       .  S
O629        H670   0.987       .  S
O629        H673   0.985       .  S
O630        H663   0.990       .  S
O632       Zr652   2.397       .  S
O632        H659   0.963       .  S
O633       Zr645   2.502       .  S
O633        C635   1.299       .  A
O634        C635   1.281       .  A
C635       C1146   1.493       .  S
O636       Zr648   2.383       .  S
O636        C638   1.274       .  A
O637       Zr651   2.428       .  S
O637        C638   1.281       .  A
C638       C1209   1.457       .  S
O639       Zr648   2.420       .  S
O639        C641   1.280       .  A
O640        C641   1.291       .  A
C641       C1189   1.483       .  S
O642       Zr645   2.502       .  S
O642        C644   1.297       .  A
O643       Zr651   2.335       .  S
O643        C644   1.268       .  A
C644       C1159   1.482       .  S
Zr645       O646   2.438       .  S
Zr645       O647   2.435       .  S
Zr645       O654   2.289       .  S
Zr645       O653   2.365       .  S
Zr645       O657   2.369       .  S
Zr645       O655   2.372       .  S
O646        H666   0.990       .  S
O646        H671   0.990       .  S
O647        H667   0.990       .  S
Zr648       O649   2.439       .  S
Zr648       O650   2.442   1_455  S
Zr648       O654   2.287       .  S
Zr648       O653   2.380       .  S
O649        H665   0.990       .  S
O650        H664   0.990       .  S
O650        H674   0.989       .  S
Zr651       O654   2.236       .  S
Zr651       O657   2.398       .  S
Zr652       O658   2.378       .  S
O653        H661   0.959       .  S
O656        H660   0.966       .  S
O657        H662   0.966       .  S
O675       Zr687   2.394       .  S
O675        C677   1.277       .  A
O676        C677   1.300       .  A
C677       C1136   1.511       .  S
O678       Zr690   2.514       .  S
O678        C680   1.290       .  A
O679        C680   1.261       .  A
C680       C1066   1.505       .  S
O681       Zr690   2.530       .  S
O681        C683   1.305       .  A
O682       Zr713   2.346   1_554  S
C683       C1076   1.489       .  S
O684       Zr687   2.409       .  S
O684        C686   1.281       .  A
O685        C686   1.292       .  A
C686       C1116   1.469       .  S
Zr687       O688   2.438       .  S
Zr687       O689   2.434       .  S
Zr687       O693   2.286       .  S
Zr687       O694   2.349       .  S
O688        H731   0.990       .  S
O689        H730   0.986       .  S
O689        H734   0.990       .  S
Zr690       O691   2.435       .  S
Zr690       O692   2.436       .  S
Zr690       O693   2.285       .  S
Zr690       O694   2.385       .  S
O691        H732   0.990       .  S
O691        H735   0.990       .  S
O692        H725   0.990       .  S
O694        H721   0.953       .  S
O695       Zr707   2.416       .  S
O695        C697   1.283       .  A
O696       Zr714   2.450       .  S
O696        C697   1.289       .  A
C697       C1109   1.485       .  S
O698       Zr710   2.545       .  S
O698        C700   1.308       .  A
O699       Zr713   2.335       .  S
O699        C700   1.272       .  A
C700       C1096   1.484       .  S
O701       Zr710   2.542       .  S
O701        C703   1.308       .  A
O702       Zr714   2.359       .  S
O702        C703   1.273       .  A
C703       C1089   1.486       .  S
O704       Zr707   2.420       .  S
O704        C706   1.275       .  A
O705       Zr713   2.454       .  S
O705        C706   1.287       .  A
C706       C1129   1.475       .  S
Zr707       O708   2.437       .  S
Zr707       O709   2.435       .  S
Zr707       O715   2.374       .  S
Zr707       O716   2.348       .  S
Zr707       O719   2.393       .  S
Zr707       O717   2.386       .  S
O708        H728   0.990       .  S
O708        H733   0.990       .  S
O709        H729   0.990       .  S
Zr710       O711   2.435       .  S
Zr710       O712   2.435       .  S
Zr710       O716   2.350       .  S
Zr710       O715   2.371       .  S
Zr710       O720   2.385       .  S
Zr710       O718   2.391   1_556  S
O711        H727   0.990       .  S
O712        H726   0.990       .  S
O712        H736   0.990       .  S
Zr713       O716   2.368       .  S
Zr713       O718   2.411   1_556  S
Zr713       O719   2.379       .  S
Zr714       O715   2.379       .  S
Zr714       O717   2.377       .  S
Zr714       O720   2.418       .  S
O715        H723   0.964       .  S
O718        H722   0.966       .  S
O719        H724   0.966       .  S
O737       Zr749   2.547       .  S
O737        C739   1.310       .  A
O738      Zr1999   2.343   1_545  S
O738        C739   1.272       .  A
C739       C1059   1.481       .  S
O740       Zr752   2.425       .  S
O740        C742   1.279       .  A
O741       Zr776   2.483   1_545  S
O741        C742   1.291       .  A
C742       C1079   1.498       .  S
O743       Zr752   2.412       .  S
O743        C745   1.278       .  A
O744      Zr1999   2.493   1_545  S
O744        C745   1.298       .  A
C745       C1179   1.489       .  S
O746       Zr749   2.540       .  S
O746        C748   1.297       .  A
O747       Zr776   2.355   1_545  S
O747        C748   1.254       .  A
C748       C1049   1.500       .  S
Zr749       O750   2.434       .  S
Zr749       O751   2.434       .  S
Zr749       O755   2.270       .  S
Zr749       O756   2.382       .  S
Zr749       O779   2.381   1_545  S
Zr749      O2005   2.373   1_545  S
O750        H793   0.990       .  S
O751        H792   0.990       .  S
O751        H796   0.990       .  S
Zr752       O753   2.440       .  S
Zr752       O754   2.442       .  S
Zr752       O755   2.251       .  S
Zr752       O756   2.368       .  S
Zr752       O780   2.382   1_545  S
Zr752       O782   2.393   1_545  S
O753        H794   0.990       .  S
O753        H797   0.990       .  S
O754        H787   0.989       .  S
O755      Zr1999   2.245   1_545  S
O756       Zr776   2.420   1_545  S
O756        H783   0.963       .  S
O757       Zr769   2.564       .  S
O757        C759   1.314       .  A
O758      Zr2000   2.350       .  S
O758        C759   1.273       .  A
C759       C1029   1.498       .  S
O760       Zr772   2.385       .  S
O760        C762   1.269       .  A
O761       Zr775   2.477       .  S
O761        C762   1.289       .  A
C762       C1169   1.499       .  S
O763       Zr772   2.372       .  S
O763        C765   1.274       .  A
O764      Zr2000   2.485       .  S
O764        C765   1.298       .  A
C765       C1069   1.468       .  S
O766       Zr769   2.564       .  S
O766        C768   1.312       .  A
O767       Zr775   2.348       .  S
O767        C768   1.272       .  A
C768       C1039   1.503       .  S
Zr769       O770   2.435       .  S
Zr769       O771   2.435       .  S
Zr769       O778   2.283       .  S
Zr769       O777   2.362       .  S
Zr769       O781   2.372       .  S
Zr769      O2003   2.377       .  S
O770        H790   0.990       .  S
O770        H795   0.990       .  S
O771        H791   0.990       .  S
Zr772       O773   2.437       .  S
Zr772       O774   2.423       .  S
Zr772       O778   2.274       .  S
Zr772       O777   2.362       .  S
Zr772      O2006   2.383       .  S
Zr772      O2004   2.388       .  S
O773        H789   0.990       .  S
O774        H788   0.989       .  S
O774        H798   0.988       .  S
Zr775      O1962   2.320       .  S
Zr775      O1968   2.470       .  S
Zr775      O1979   2.248       .  S
Zr775       O778   2.251       .  S
Zr775      O2004   2.371       .  S
Zr775       O781   2.421       .  S
Zr776      O1982   2.372       .  S
Zr776      O1988   2.464       .  S
Zr776      O2001   2.385       .  S
Zr776       O779   2.416       .  S
Zr776       O782   2.397       .  S
O777      Zr2000   2.388       .  S
O777        H785   0.960       .  S
O779      Zr1993   2.376       .  S
O780      Zr1996   2.417       .  S
O780      Zr1999   2.382       .  S
O780        H784   0.965       .  S
O781      Zr1973   2.369       .  S
O781        H786   0.966       .  S
O782      Zr1996   2.387       .  S
O799       Zr811   2.406       .  S
O799        C801   1.278       .  A
O800      Zr2061   2.470   1_545  S
O800        C801   1.294       .  A
C801       C1156   1.468       .  S
O802       Zr814   2.575       .  S
O802        C804   1.316       .  A
O803      Zr2062   2.358   1_545  S
O803        C804   1.274       .  A
C804       C1006   1.524       .  S
O805       Zr814   2.594       .  S
O805        C807   1.318       .  A
O806      Zr2061   2.342   1_545  S
O806        C807   1.270       .  A
C807       C1019   1.515       .  S
O808       Zr811   2.404       .  S
O808        C810   1.266       .  A
O809      Zr2062   2.465   1_545  S
O809        C810   1.280       .  A
C810       C1099   1.490       .  S
Zr811       O812   2.433       .  S
Zr811       O813   2.440       .  S
Zr811       O817   2.377       .  S
Zr811       O818   2.409       .  S
Zr811      O2065   2.399   1_545  S
Zr811      O2067   2.405   1_545  S
O812        H855   0.990       .  S
O813        H854   0.989       .  S
O813        H858   0.990       .  S
Zr814       O815   2.435       .  S
Zr814       O816   2.435       .  S
Zr814       O818   2.413       .  S
Zr814       O817   2.366       .  S
Zr814      O2066   2.405   1_545  S
Zr814      O2068   2.383   1_545  S
O815        H856   0.990       .  S
O815        H859   0.990       .  S
O816        H849   0.990       .  S
O817      Zr2061   2.318   1_545  S
O818      Zr2062   2.403   1_545  S
O818        H845   0.964       .  S
O819       Zr831   2.412       .  S
O819        C821   1.276       .  A
O820       Zr838   2.494       .  S
O820        C821   1.295       .  A
C821       C1086   1.508       .  S
O822       Zr834   2.555       .  S
O822        C824   1.310       .  A
O823       Zr837   2.328       .  S
O823        C824   1.271       .  A
C824        C999   1.483       .  S
O825       Zr834   2.542       .  S
O825        C827   1.309       .  A
O826       Zr838   2.331       .  S
O826        C827   1.270       .  A
C827        C986   1.498       .  S
O828       Zr831   2.371       .  S
O828        C830   1.272       .  A
O829       Zr837   2.484       .  S
O829        C830   1.295       .  A
C830       C1149   1.485       .  S
Zr831       O832   2.443       .  S
Zr831       O833   2.430       .  S
Zr831       O840   2.266       .  S
Zr831       O839   2.364       .  S
Zr831       O843   2.380       .  S
Zr831       O841   2.376       .  S
O832        H852   0.990       .  S
O832        H857   0.990       .  S
O833        H853   0.988       .  S
Zr834       O835   2.433       .  S
Zr834       O836   2.437       .  S
Zr834       O840   2.275       .  S
Zr834       O839   2.365       .  S
Zr834       O844   2.367       .  S
Zr834       O842   2.355       .  S
O835        H851   0.990       .  S
O836        H850   0.990       .  S
O836        H860   0.990       .  S
Zr837      O2024   2.515       .  S
Zr837      O2030   2.342       .  S
Zr837       O840   2.247       .  S
Zr837      O2041   2.361       .  S
Zr837       O842   2.431       .  S
Zr837       O843   2.376       .  S
Zr838      O2027   2.374       .  S
Zr838      O2033   2.473       .  S
Zr838      O2042   2.382       .  S
Zr838       O839   2.388       .  S
Zr838       O841   2.377       .  S
Zr838       O844   2.411       .  S
O839        H847   0.963       .  S
O841      Zr2035   2.397       .  S
O842      Zr2038   2.375       .  S
O842        H846   0.966       .  S
O843      Zr2035   2.384       .  S
O843        H848   0.965       .  S
O844      Zr2038   2.372       .  S
O861      Zr3321   2.517   1_455  S
O861        C863   1.302       .  A
O862       Zr899   2.345       .  S
O862        C863   1.270       .  A
C863       C1056   1.473       .  S
O864       Zr876   2.419       .  S
O864        C866   1.278       .  A
O865       Zr900   2.471       .  S
O865        C866   1.287       .  A
C866       C1139   1.496       .  S
O867      Zr3324   2.403   1_455  S
O867        C869   1.269       .  A
O868       Zr899   2.444       .  S
O868        C869   1.277       .  A
C869       C1216   1.488       .  S
O870       Zr873   2.575       .  S
O870        C872   1.313       .  A
O871       Zr900   2.311       .  S
O871        C872   1.264       .  A
C872       C1046   1.504       .  S
Zr873      O3309   2.536       .  S
Zr873       O874   2.436       .  S
Zr873       O875   2.430       .  S
Zr873      O3327   2.393       .  S
Zr873       O880   2.357       .  S
Zr873       O903   2.381       .  S
Zr873      O3353   2.401       .  S
O874       H3365   0.990       .  S
O875       H3364   0.990       .  S
O875        H920   0.990       .  S
Zr876      O3315   2.422       .  S
Zr876       O877   2.438       .  S
Zr876       O878   2.435       .  S
Zr876       O880   2.369       .  S
Zr876      O3327   2.384       .  S
Zr876      O3352   2.395       .  S
Zr876       O906   2.396       .  S
O877        H918   0.989       .  S
O877        H921   0.988       .  S
O878        H911   0.990       .  S
O879      Zr3321   2.305   1_455  S
O879      Zr3324   2.292   1_455  S
O879       Zr899   2.263       .  S
O880       Zr900   2.375       .  S
O880        H907   0.963       .  S
O881       Zr893   2.577       .  S
O881        C883   1.316       .  A
O882       Zr900   2.346       .  S
O882        C883   1.272       .  A
C883       C1009   1.510       .  S
O884      Zr3344   2.394   1_455  S
O884        C886   1.279       .  A
O885       Zr899   2.415       .  S
O885        C886   1.280       .  A
C886       C1206   1.454       .  S
O887       Zr896   2.429       .  S
O887        C889   1.285       .  A
O888       Zr900   2.424       .  S
O888        C889   1.285       .  A
C889       C1126   1.470       .  S
O890      Zr3341   2.609   1_455  S
O890        C892   1.322       .  A
O891       Zr899   2.337       .  S
O891        C892   1.268       .  A
C892       C1016   1.524       .  S
Zr893      O3338   2.586       .  S
Zr893       O894   2.437       .  S
Zr893       O895   2.426       .  S
Zr893      O3350   2.271       .  S
Zr893       O901   2.362       .  S
Zr893      O3353   2.367       .  S
Zr893       O903   2.386       .  S
O894        H914   0.990       .  S
O894        H919   0.990       .  S
O895        H915   0.990       .  S
Zr896      O3332   2.403       .  S
Zr896       O897   2.437       .  S
Zr896       O898   2.436       .  S
Zr896      O3350   2.272       .  S
Zr896       O901   2.373       .  S
Zr896       O906   2.364       .  S
Zr896      O3352   2.379       .  S
O897        H913   0.990       .  S
O898        H912   0.990       .  S
O898        H922   0.990       .  S
Zr899       O902   2.255       .  S
Zr899       O904   2.386       .  S
Zr899       O905   2.407       .  S
Zr900       O901   2.383       .  S
Zr900       O903   2.402       .  S
Zr900       O906   2.363       .  S
O901        H909   0.964       .  S
O902      Zr3341   2.275   1_455  S
O902      Zr3344   2.275   1_455  S
O904      Zr3324   2.406   1_455  S
O904      Zr3344   2.382   1_455  S
O904        H908   0.967       .  S
O905      Zr3321   2.374   1_455  S
O905      Zr3341   2.359   1_455  S
O905        H910   0.965       .  S
H916       O3323   0.990       .  S
H917       O3322   0.990       .  S
O923      Zr3383   2.388   1_455  S
O923        C925   1.259       .  A
O924       Zr961   2.457       .  S
O924        C925   1.277       .  A
C925       C1196   1.480       .  S
O926       Zr938   2.592       .  S
O926        C928   1.318       .  A
O927       Zr962   2.322       .  S
O927        C928   1.270       .  A
C928       C1026   1.498       .  S
O929      Zr3386   2.556   1_455  S
O929        C931   1.312       .  A
O930       Zr961   2.367       .  S
O930        C931   1.275       .  A
C931       C1036   1.510       .  S
O932       Zr935   2.415       .  S
O932        C934   1.283       .  A
O933       Zr962   2.457       .  S
O933        C934   1.291       .  A
C934       C1119   1.470       .  S
Zr935      O3371   2.391       .  S
Zr935       O936   2.433       .  S
Zr935       O937   2.436       .  S
Zr935      O3389   2.295       .  S
Zr935       O942   2.348       .  S
Zr935       O965   2.361       .  S
Zr935      O3415   2.393       .  S
O936       H3427   0.990       .  S
O937        H978   0.990       .  S
O937        H982   0.990       .  S
Zr938      O3377   2.532       .  S
Zr938       O939   2.438       .  S
Zr938       O940   2.421       .  S
Zr938      O3389   2.301       .  S
Zr938       O942   2.335       .  S
Zr938      O3414   2.383       .  S
Zr938       O968   2.377       .  S
O939        H980   0.990       .  S
O939        H983   0.989       .  S
O940       H3421   0.990       .  S
O941      Zr3383   2.288       .  S
O941      Zr3386   2.306       .  S
O941       Zr961   2.277   1_655  S
O942       Zr962   2.351       .  S
O942        H969   0.951       .  S
O943       Zr955   2.433       .  S
O943        C945   1.278       .  A
O944       Zr962   2.428       .  S
O944        C945   1.278       .  A
C945       C1106   1.473       .  S
O946      Zr3406   2.567   1_455  S
O946        C948   1.313       .  A
O947       Zr961   2.329       .  S
O947        C948   1.268       .  A
C948        C996   1.484       .  S
O949       Zr958   2.523       .  S
O949        C951   1.294       .  A
O950       Zr962   2.368       .  S
O950        C951   1.258       .  A
C951        C989   1.502       .  S
O952      Zr3403   2.395       .  S
O952        C954   1.279   1_655  A
O953       Zr961   2.473       .  S
O953        C954   1.293       .  A
C954       C1186   1.463       .  S
Zr955      O3400   2.404       .  S
Zr955       O956   2.442       .  S
Zr955       O957   2.436       .  S
Zr955      O3412   2.264       .  S
Zr955       O963   2.356       .  S
Zr955      O3415   2.379       .  S
Zr955       O965   2.379       .  S
O956        H976   0.990       .  S
O956        H981   0.990       .  S
O957        H977   0.989       .  S
Zr958      O3394   2.525       .  S
Zr958       O959   2.433       .  S
Zr958       O960   2.430       .  S
Zr958      O3412   2.266       .  S
Zr958       O963   2.388       .  S
Zr958       O968   2.389       .  S
Zr958      O3414   2.397       .  S
O959        H975   0.990       .  S
O960        H974   0.990       .  S
O960        H984   0.990       .  S
Zr961       O964   2.353   1_455  S
Zr961       O966   2.412       .  S
Zr961       O967   2.388   1_455  S
Zr962       O963   2.410       .  S
Zr962       O965   2.386       .  S
Zr962       O968   2.413       .  S
O963        H971   0.962       .  S
O964      Zr3403   2.373       .  S
O964      Zr3406   2.353       .  S
O966      Zr3386   2.371   1_455  S
O966      Zr3406   2.379   1_455  S
O966        H970   0.965       .  S
O967      Zr3383   2.404       .  S
O967      Zr3403   2.356       .  S
O967        H972   0.968       .  S
H973       O3388   0.988       .  S
H979       O3384   0.990       .  S
C985        C986   1.397       .  A
C985        C990   1.403       .  A
C985        F992   1.358       .  S
C986        C987   1.426       .  A
C987        C988   1.400       .  A
C987        F994   1.359       .  S
C988        C989   1.397       .  A
C988        F993   1.357       .  S
C989        C990   1.426       .  A
C990        F991   1.353       .  S
C995        C996   1.406       .  A
C995       C1000   1.407       .  A
C995       F1002   1.358       .  S
C996        C997   1.416       .  A
C997        C998   1.408       .  A
C997       F1004   1.356       .  S
C998        C999   1.401       .  A
C998       F1003   1.355       .  S
C999       C1000   1.414       .  A
C1000      F1001   1.358       .  S
C1005      C1006   1.434       .  A
C1005      C1010   1.409       .  A
C1005      F1012   1.358       .  S
C1006      C1007   1.404       .  A
C1007      C1008   1.413       .  A
C1007      F1014   1.358       .  S
C1008      C1009   1.426       .  A
C1008      F1013   1.356       .  S
C1009      C1010   1.396       .  A
C1010      F1011   1.357       .  S
C1015      C1016   1.433       .  A
C1015      C1020   1.412       .  A
C1015      F1022   1.357       .  S
C1016      C1017   1.402       .  A
C1017      C1018   1.417       .  A
C1017      F1024   1.357       .  S
C1018      C1019   1.428       .  A
C1018      F1023   1.358   1_545  S
C1019      C1020   1.398       .  A
C1020      F1021   1.358       .  S
C1025      C1026   1.400       .  A
C1025      C1030   1.408       .  A
C1025      F1032   1.353       .  S
C1026      C1027   1.421       .  A
C1027      C1028   1.411       .  A
C1027      F1034   1.355       .  S
C1028      C1029   1.402       .  A
C1028      F1033   1.357       .  S
C1029      C1030   1.419       .  A
C1030      F1031   1.358       .  S
C1035      C1036   1.428       .  A
C1035      C1040   1.411       .  A
C1035      F1042   1.358       .  S
C1036      C1037   1.401       .  A
C1037      C1038   1.407       .  A
C1037      F1044   1.358       .  S
C1038      C1039   1.422       .  A
C1038      F1043   1.356       .  S
C1039      C1040   1.399       .  A
C1040      F1041   1.357       .  S
C1045      C1046   1.431       .  A
C1045      C1050   1.401       .  A
C1045      F1052   1.358       .  S
C1046      C1047   1.395       .  A
C1047      C1048   1.408       .  A
C1047      F1054   1.357       .  S
C1048      C1049   1.429       .  A
C1048      F1053   1.354       .  S
C1049      C1050   1.392       .  A
C1050      F1051   1.358       .  S
C1055      C1056   1.394       .  A
C1055      C1060   1.399       .  A
C1055      F1062   1.357       .  S
C1056      C1057   1.416       .  A
C1057      C1058   1.405       .  A
C1057      F1064   1.358       .  S
C1058      C1059   1.404       .  A
C1058      F1063   1.358       .  S
C1059      C1060   1.414       .  A
C1060      F1061   1.353       .  S
C1065      C1066   1.423       .  A
C1065      C1070   1.395       .  A
C1065      F1072   1.349       .  S
C1066      C1067   1.404       .  A
C1067      C1068   1.407       .  A
C1067      F1074   1.358       .  S
C1068      C1069   1.416       .  A
C1068      F1073   1.356       .  S
C1069      C1070   1.391       .  A
C1070      F1071   1.358       .  S
C1075      C1076   1.404       .  A
C1075      C1080   1.415       .  A
C1076      C1077   1.410       .  A
C1077      C1078   1.397       .  A
C1077      F1084   1.356       .  S
C1078      C1079   1.406       .  A
C1078      F1083   1.359       .  S
C1079      C1080   1.418       .  A
C1080      F1081   1.354       .  S
C1085      C1086   1.414       .  A
C1085      C1090   1.415       .  A
C1085      F1092   1.357       .  S
C1086      C1087   1.413       .  A
C1087      C1088   1.404       .  A
C1087      F1094   1.354       .  S
C1088      C1089   1.402       .  A
C1088      F1093   1.358       .  S
C1089      C1090   1.414       .  A
C1090      F1091   1.358       .  S
C1095      C1096   1.407       .  A
C1095      C1100   1.413       .  A
C1095      F1102   1.352       .  S
C1096      C1097   1.411       .  A
C1097      C1098   1.397       .  A
C1097      F1104   1.359       .  S
C1098      C1099   1.406       .  A
C1098      F1103   1.357       .  S
C1099      C1100   1.411       .  A
C1100      F1101   1.357       .  S
C1105      C1106   1.395       .  A
C1105      C1110   1.388       .  A
C1105      F1112   1.358       .  S
C1106      C1107   1.414       .  A
C1107      C1108   1.408       .  A
C1107      F1114   1.354       .  S
C1108      C1109   1.404       .  A
C1108      F1113   1.357       .  S
C1109      C1110   1.414       .  A
C1110      F1111   1.357       .  S
C1115      C1116   1.393       .  A
C1115      C1120   1.395       .  A
C1115      F1122   1.358       .  S
C1116      C1117   1.419       .  A
C1117      C1118   1.397       .  A
C1117      F1124   1.348       .  S
C1118      C1119   1.390       .  A
C1118      F1123   1.358       .  S
C1119      C1120   1.415       .  A
C1120      F1121   1.352       .  S
C1125      C1126   1.412       .  A
C1125      C1130   1.397       .  A
C1125      F1132   1.358       .  S
C1126      C1127   1.395       .  A
C1127      C1128   1.393       .  A
C1127      F1134   1.358       .  S
C1128      C1129   1.418       .  A
C1128      F1133   1.357       .  S
C1129      C1130   1.399       .  A
C1130      F1131   1.357       .  S
C1135      C1136   1.408       .  A
C1135      C1140   1.413       .  A
C1135      F1142   1.357       .  S
C1136      C1137   1.425       .  A
C1137      C1138   1.399       .  A
C1137      F1144   1.358       .  S
C1138      C1139   1.400       .  A
C1138      F1143   1.359       .  S
C1139      C1140   1.415       .  A
C1140      F1141   1.353       .  S
C1145      C1146   1.420       .  A
C1145      C1150   1.407       .  A
C1145      F1152   1.354       .  S
C1146      C1147   1.400       .  A
C1147      C1148   1.395       .  A
C1147      F1154   1.358       .  S
C1148      C1149   1.416       .  A
C1148      F1153   1.359       .  S
C1149      C1150   1.398       .  A
C1150      F1151   1.357       .  S
C1155      C1156   1.418       .  A
C1155      C1160   1.406       .  A
C1155      F1162   1.358       .  S
C1156      C1157   1.387       .  A
C1157      C1158   1.381       .  A
C1157      F1164   1.358       .  S
C1158      C1159   1.422       .  A
C1158      F1163   1.355       .  S
C1159      C1160   1.400       .  A
C1160      F1161   1.358       .  S
C1165      C1166   1.399       .  A
C1165      C1170   1.393       .  A
C1165      F1172   1.359       .  S
C1166      C1167   1.408       .  A
C1167      C1168   1.411       .  A
C1167      F1174   1.357       .  S
C1168      C1169   1.413       .  A
C1168      F1173   1.357       .  S
C1169      C1170   1.417       .  A
C1170      F1171   1.358       .  S
C1175      C1176   1.404       .  A
C1175      C1180   1.413       .  A
C1175      F1182   1.356       .  S
C1176      C1177   1.425       .  A
C1177      C1178   1.402       .  A
C1177      F1184   1.357       .  S
C1178      C1179   1.399       .  A
C1178      F1183   1.359       .  S
C1179      C1180   1.414       .  A
C1180      F1181   1.356       .  S
C1185      C1186   1.414       .  A
C1185      C1190   1.404       .  A
C1185      F1192   1.356       .  S
C1186      C1187   1.391       .  A
C1187      C1188   1.394       .  A
C1187      F1194   1.358       .  S
C1188      C1189   1.419       .  A
C1188      F1193   1.358       .  S
C1189      C1190   1.399       .  A
C1190      F1191   1.357       .  S
C1195      C1196   1.409       .  A
C1195      C1200   1.409       .  A
C1195      F1202   1.357       .  S
C1196      C1197   1.409       .  A
C1197      C1198   1.383       .  A
C1197      F1204   1.360       .  S
C1198      C1199   1.398       .  A
C1198      F1203   1.352   1_455  S
C1199      C1200   1.415       .  A
C1200      F1201   1.357       .  S
C1205      C1206   1.389       .  A
C1205      C1210   1.386       .  A
C1205      F1212   1.358       .  S
C1206      C1207   1.415       .  A
C1207      C1208   1.394       .  A
C1207      F1214   1.353       .  S
C1208      C1209   1.393       .  A
C1208      F1213   1.358       .  S
C1209      C1210   1.411       .  A
C1210      F1211   1.352       .  S
C1215      C1216   1.411       .  A
C1215      C1220   1.412       .  A
C1215      F1222   1.356       .  S
C1216      C1217   1.403       .  A
C1217      C1218   1.388       .  A
C1217      F1224   1.356       .  S
C1218      C1219   1.402       .  A
C1218      F1223   1.354       .  S
C1219      C1220   1.414       .  A
C1220      F1221   1.356       .  S
O1225     Zr1237   2.517       .  S
O1225      C1227   1.303       .  A
O1226     Zr1875   2.351   1_554  S
O1226      C1227   1.272       .  A
C1227      C1788   1.497       .  S
O1228     Zr1240   2.428       .  S
O1228      C1230   1.274       .  A
O1229     Zr1264   2.440   1_554  S
O1229      C1230   1.275       .  A
C1230      C1811   1.487       .  S
O1231     Zr1240   2.396       .  S
O1231      C1233   1.276       .  A
O1232     Zr1875   2.444   1_554  S
O1232      C1233   1.288       .  A
C1233      C1831   1.462       .  S
O1234     Zr1237   2.521       .  S
O1234      C1236   1.302       .  A
O1235     Zr1264   2.334   1_554  S
O1235      C1236   1.272       .  A
C1236      C1778   1.466       .  S
Zr1237     O1238   2.434       .  S
Zr1237     O1239   2.435       .  S
Zr1237     O1243   2.359       .  S
Zr1237     O1244   2.387       .  S
Zr1237     O1879   2.369   1_554  S
Zr1237     O1881   2.394   1_554  S
O1238      H1281   0.990       .  S
O1239      H1280   0.990       .  S
O1239      H1284   0.990       .  S
Zr1240     O1241   2.430       .  S
Zr1240     O1242   2.436       .  S
Zr1240     O1244   2.376       .  S
Zr1240     O1243   2.355       .  S
Zr1240     O1268   2.391   1_554  S
Zr1240     O1270   2.380   1_554  S
O1241      H1282   0.990       .  S
O1241      H1285   0.990       .  S
O1242      H1275   0.990       .  S
O1243     Zr1875   2.346   1_554  S
O1244     Zr1264   2.393   1_554  S
O1244      H1271   0.966       .  S
O1245     Zr1257   2.514       .  S
O1245      C1247   1.290       .  A
O1246     Zr1876   2.375       .  S
O1246      C1247   1.260       .  A
C1247      C1758   1.498       .  S
O1248     Zr1260   2.372       .  S
O1248      C1250   1.275       .  A
O1249     Zr1263   2.422       .  S
O1249      C1250   1.284       .  A
C1250      C1821   1.462       .  S
O1251     Zr1260   2.440       .  S
O1251      C1253   1.285       .  A
O1252     Zr1876   2.478       .  S
O1252      C1253   1.294       .  A
C1253      C1801   1.484       .  S
O1254     Zr1257   2.510       .  S
O1254      C1256   1.301       .  A
O1255     Zr1263   2.361       .  S
O1255      C1256   1.273       .  A
C1256      C1771   1.498       .  S
Zr1257     O1258   2.436       .  S
Zr1257     O1259   2.437       .  S
Zr1257     O1266   2.284       .  S
Zr1257     O1265   2.381       .  S
Zr1257     O1269   2.382       .  S
Zr1257     O1267   2.380       .  S
O1258      H1278   0.990       .  S
O1258      H1283   0.991       .  S
O1259      H1279   0.990       .  S
Zr1260     O1261   2.439       .  S
Zr1260     O1262   2.443       .  S
Zr1260     O1266   2.287       .  S
Zr1260     O1265   2.364       .  S
Zr1260     O1882   2.350       .  S
Zr1260     O1880   2.386       .  S
O1261      H1277   0.990       .  S
O1262      H1276   0.989   1_455  S
O1262      H1286   0.990       .  S
Zr1263     O1838   2.355       .  S
Zr1263     O1844   2.455       .  S
Zr1263     O1855   2.242       .  S
Zr1263     O1266   2.256       .  S
Zr1263     O1880   2.375       .  S
Zr1263     O1269   2.399       .  S
Zr1264     O1858   2.377       .  S
Zr1264     O1864   2.429       .  S
Zr1264     O1877   2.391       .  S
Zr1264     O1879   2.404       .  S
Zr1264     O1270   2.380       .  S
O1265     Zr1876   2.394       .  S
O1265      H1273   0.959       .  S
O1267     Zr1849   2.386       .  S
O1267     Zr1876   2.416       .  S
O1268     Zr1872   2.390       .  S
O1268     Zr1875   2.380       .  S
O1268      H1272   0.966       .  S
O1269     Zr1849   2.389       .  S
O1269      H1274   0.966       .  S
O1270     Zr1872   2.342       .  S
O1287     Zr1299   2.435       .  S
O1287      C1289   1.285       .  A
O1288     Zr1937   2.437       .  S
O1288      C1289   1.283       .  A
C1289      C1748   1.480       .  S
O1290     Zr1302   2.534       .  S
O1290      C1292   1.306       .  A
O1291     Zr1938   2.358   1_554  S
O1291      C1292   1.273       .  A
C1292      C1678   1.510       .  S
O1293     Zr1302   2.583       .  S
O1293      C1295   1.315       .  A
O1294     Zr1325   2.356       .  S
O1294      C1907   1.272       .  A
C1295      O1906   1.271       .  A
C1295      C1688   1.499       .  S
O1296     Zr1299   2.429       .  S
O1296      C1298   1.276       .  A
O1297     Zr1938   2.476   1_554  S
O1297      C1298   1.289       .  A
C1298      C1728   1.506       .  S
Zr1299     O1300   2.431       .  S
Zr1299     O1301   2.437       .  S
Zr1299     O1305   2.356       .  S
Zr1299     O1306   2.398       .  S
Zr1299     O1941   2.397   1_554  S
Zr1299     O1943   2.376   1_554  S
O1300      H1343   0.991       .  S
O1301      H1342   0.990       .  S
O1301      H1346   0.990       .  S
Zr1302     O1303   2.438       .  S
Zr1302     O1304   2.434       .  S
Zr1302     O1306   2.384       .  S
Zr1302     O1305   2.362       .  S
Zr1302     O1942   2.361       .  S
Zr1302     O1944   2.388       .  S
O1303      H1344   0.990       .  S
O1303      H1347   0.990       .  S
O1304      H1337   0.990       .  S
O1305     Zr1937   2.341       .  S
O1306     Zr1938   2.398   1_554  S
O1306      H1333   0.963       .  S
O1307     Zr1319   2.433       .  S
O1307      C1309   1.281       .  A
O1308     Zr1326   2.425       .  S
O1308      C1309   1.280       .  A
C1309      C1721   1.497       .  S
O1310     Zr1322   2.547       .  S
O1310      C1312   1.308       .  A
O1311     Zr1325   2.321       .  S
O1311      C1312   1.265       .  A
C1312      C1708   1.498       .  S
O1313     Zr1322   2.522       .  S
O1313      C1315   1.303       .  A
O1314     Zr1326   2.380       .  S
O1314      C1315   1.278       .  A
C1315      C1701   1.486       .  S
O1316     Zr1319   2.414       .  S
O1316      C1318   1.272       .  A
O1317     Zr1325   2.461       .  S
O1317      C1318   1.281       .  A
C1318      C1741   1.498       .  S
Zr1319     O1320   2.441       .  S
Zr1319     O1321   2.438       .  S
Zr1319     O1328   2.285       .  S
Zr1319     O1327   2.374       .  S
Zr1319     O1331   2.419       .  S
Zr1319     O1329   2.386       .  S
O1320      H1340   0.987       .  S
O1320      H1345   0.987       .  S
O1321      H1341   0.989       .  S
Zr1322     O1323   2.435       .  S
Zr1322     O1324   2.438       .  S
Zr1322     O1328   2.279       .  S
Zr1322     O1327   2.382       .  S
Zr1322     O1332   2.390       .  S
Zr1322     O1330   2.372       .  S
O1323      H1339   0.990       .  S
O1324      H1338   0.990       .  S
O1324      H1348   0.990       .  S
Zr1325     O1900   2.450       .  S
Zr1325     O1917   2.249       .  S
Zr1325     O1328   2.262       .  S
Zr1325     O1330   2.409       .  S
Zr1325     O1331   2.376       .  S
Zr1326     O1903   2.327       .  S
Zr1326     O1909   2.466       .  S
Zr1326     O1918   2.365       .  S
Zr1326     O1327   2.381       .  S
Zr1326     O1329   2.380       .  S
Zr1326     O1332   2.410       .  S
O1327      H1335   0.964       .  S
O1329     Zr1911   2.382       .  S
O1330     Zr1914   2.381       .  S
O1330      H1334   0.965       .  S
O1331     Zr1911   2.365       .  S
O1331      H1336   0.966       .  S
O1332     Zr1914   2.374       .  S
O1349     Zr1361   2.551       .  S
O1349      C1351   1.310       .  A
O1350      C1351   1.274       .  A
C1351      C1671   1.492       .  S
O1352     Zr1364   2.429       .  S
O1352      C1354   1.275       .  A
O1353     Zr1388   2.480       .  S
O1353      C1354   1.286       .  A
C1354      C1691   1.510       .  S
O1355     Zr1364   2.405       .  S
O1355      C1357   1.279       .  A
O1356      C1357   1.293       .  A
C1357      C1791   1.476       .  S
O1358     Zr1361   2.529       .  S
O1358      C1360   1.295       .  A
O1359     Zr1388   2.369       .  S
O1359      C1360   1.258       .  A
C1360      C1661   1.496       .  S
Zr1361     O1362   2.435       .  S
Zr1361     O1363   2.428       .  S
Zr1361     O1367   2.353       .  S
Zr1361     O1368   2.391       .  S
Zr1361     O1391   2.388       .  S
O1362      H1405   0.990       .  S
O1363      H1404   0.990       .  S
O1363      H1408   0.989       .  S
Zr1364     O1365   2.436       .  S
Zr1364     O1366   2.422       .  S
Zr1364     O1368   2.374       .  S
Zr1364     O1367   2.362       .  S
Zr1364     O1392   2.396       .  S
Zr1364     O1394   2.377       .  S
O1365      H1406   0.990       .  S
O1365      H1409   0.990       .  S
O1366      H1399   0.990       .  S
O1368     Zr1388   2.412       .  S
O1368      H1395   0.963       .  S
O1369     Zr1381   2.588       .  S
O1369      C1371   1.318       .  A
O1370      C1371   1.276       .  A
C1371      C1641   1.503       .  S
O1372     Zr1384   2.395       .  S
O1372      C1374   1.273       .  A
O1373     Zr1387   2.467       .  S
O1373      C1374   1.289       .  A
C1374      C1781   1.498       .  S
O1375     Zr1384   2.397       .  S
O1375      C1377   1.278       .  A
O1376      C1377   1.299       .  A
C1377      C1681   1.480       .  S
O1378     Zr1381   2.572       .  S
O1378      C1380   1.315       .  A
O1379     Zr1387   2.377       .  S
O1379      C1380   1.280       .  A
C1380      C1651   1.503       .  S
Zr1381     O1382   2.435       .  S
Zr1381     O1383   2.430       .  S
Zr1381     O1390   2.287       .  S
Zr1381     O1389   2.355       .  S
Zr1381     O1393   2.366       .  S
O1382      H1402   0.990       .  S
O1382      H1407   0.990       .  S
O1383      H1403   0.990       .  S
Zr1384     O1385   2.432       .  S
Zr1384     O1386   2.430       .  S
Zr1384     O1390   2.275       .  S
Zr1384     O1389   2.358       .  S
O1385      H1401   0.987       .  S
O1386      H1400   0.990       .  S
O1386      H1410   0.989       .  S
Zr1387     O1390   2.253       .  S
Zr1387     O1393   2.412       .  S
Zr1388     O1391   2.408       .  S
Zr1388     O1394   2.368       .  S
O1389      H1397   0.959       .  S
O1392      H1396   0.966       .  S
O1393      H1398   0.962       .  S
O1411     Zr1423   2.402       .  S
O1411      C1413   1.278       .  A
O1412      C1413   1.294       .  A
C1413      C1768   1.479       .  S
O1414     Zr1426   2.581       .  S
O1414      C1416   1.317       .  A
O1415      C1416   1.276       .  A
C1416      C1618   1.507       .  S
O1417     Zr1426   2.580       .  S
O1417      C1419   1.316       .  A
O1418      C1419   1.275       .  A
C1419      C1631   1.512       .  S
O1420     Zr1423   2.402       .  S
O1420      C1422   1.278       .  A
O1421      C1422   1.294       .  A
C1422      C1711   1.478       .  S
Zr1423     O1424   2.440       .  S
Zr1423     O1425   2.435       .  S
Zr1423     O1429   2.356       .  S
Zr1423     O1430   2.377       .  S
O1424      H1467   0.990       .  S
O1425      H1466   0.990       .  S
O1425      H1470   0.985       .  S
Zr1426     O1427   2.436       .  S
Zr1426     O1428   2.427       .  S
Zr1426     O1430   2.368       .  S
Zr1426     O1429   2.369       .  S
O1427      H1468   0.990       .  S
O1427      H1471   0.990       .  S
O1428      H1461   0.990       .  S
O1430      H1457   0.962       .  S
O1431     Zr1443   2.422       .  S
O1431      C1433   1.277       .  A
O1432     Zr1450   2.501       .  S
O1432      C1433   1.294       .  A
C1433      C1698   1.516       .  S
O1434     Zr1446   2.538       .  S
O1434      C1436   1.308       .  A
O1435     Zr1449   2.333       .  S
O1435      C1436   1.268       .  A
C1436      C1611   1.500       .  S
O1437     Zr1446   2.519       .  S
O1437      C1439   1.294       .  A
O1438     Zr1450   2.370       .  S
O1438      C1439   1.258       .  A
C1439      C1598   1.494       .  S
O1440     Zr1443   2.395       .  S
O1440      C1442   1.276       .  A
O1441     Zr1449   2.468       .  S
O1441      C1442   1.292       .  A
C1442      C1761   1.473       .  S
Zr1443     O1444   2.438       .  S
Zr1443     O1445   2.423       .  S
Zr1443     O1452   2.246       .  S
Zr1443     O1451   2.368       .  S
Zr1443     O1455   2.406       .  S
Zr1443     O1453   2.381       .  S
O1444      H1464   0.990       .  S
O1444      H1469   0.990       .  S
O1445      H1465   0.990       .  S
Zr1446     O1447   2.436       .  S
Zr1446     O1448   2.432       .  S
Zr1446     O1452   2.263       .  S
Zr1446     O1451   2.389       .  S
Zr1446     O1456   2.387       .  S
Zr1446     O1454   2.377       .  S
O1447      H1463   0.990       .  S
O1448      H1462   0.990       .  S
O1448      H1472   0.990       .  S
Zr1449     O1452   2.241       .  S
Zr1449     O1454   2.413       .  S
Zr1449     O1455   2.374       .  S
Zr1450     O1451   2.421       .  S
Zr1450     O1453   2.370       .  S
Zr1450     O1456   2.425       .  S
O1451      H1459   0.964       .  S
O1454      H1458   0.965       .  S
O1455      H1460   0.966       .  S
O1473     Zr3933   2.539   1_455  S
O1473      C1475   1.307       .  A
O1474     Zr1511   2.365       .  S
O1474      C1475   1.275       .  A
C1475      C1668   1.497       .  S
O1476     Zr1488   2.434       .  S
O1476      C1478   1.279       .  A
O1477     Zr1512   2.433       .  S
O1477      C1478   1.278       .  A
C1478      C1751   1.473       .  S
O1479     Zr3936   2.388       .  S
O1479      C1481   1.278   1_655  A
O1480     Zr1511   2.456       .  S
O1480      C1481   1.290       .  A
C1481      C1828   1.478       .  S
O1482     Zr1485   2.513       .  S
O1482      C1484   1.294       .  A
O1483     Zr1512   2.378       .  S
O1483      C1484   1.262       .  A
C1484      C1658   1.497       .  S
Zr1485     O3921   2.557       .  S
Zr1485     O1486   2.434       .  S
Zr1485     O1487   2.436       .  S
Zr1485     O3939   2.282       .  S
Zr1485     O1492   2.404       .  S
Zr1485     O1515   2.393       .  S
Zr1485     O3965   2.372       .  S
O1486      H3977   0.990       .  S
O1487      H3976   0.990       .  S
O1487      H1532   0.990       .  S
Zr1488     O3927   2.396       .  S
Zr1488     O1489   2.438       .  S
Zr1488     O1490   2.436       .  S
Zr1488     O3939   2.277       .  S
Zr1488     O1492   2.361       .  S
Zr1488     O3964   2.382       .  S
Zr1488     O1518   2.356       .  S
O1489      H1530   0.990       .  S
O1489      H1533   0.990       .  S
O1490      H1523   0.990       .  S
O1491     Zr3933   2.282       .  S
O1491     Zr3936   2.285       .  S
O1491     Zr1511   2.248   1_655  S
O1492     Zr1512   2.418       .  S
O1492      H1519   0.963       .  S
O1493     Zr1505   2.589       .  S
O1493      C1495   1.318       .  A
O1494     Zr1512   2.335       .  S
O1494      C1495   1.272       .  A
C1495      C1621   1.498       .  S
O1496     Zr3956   2.405       .  S
O1496      C1498   1.281   1_655  A
O1497     Zr1511   2.419       .  S
O1497      C1498   1.281       .  A
C1498      C1818   1.453       .  S
O1499     Zr1508   2.430       .  S
O1499      C1501   1.275       .  A
O1500     Zr1512   2.461       .  S
O1500      C1501   1.283       .  A
C1501      C1738   1.500       .  S
O1502     Zr3953   2.548   1_455  S
O1502      C1504   1.310       .  A
O1503     Zr1511   2.392       .  S
O1503      C1504   1.278       .  A
C1504      C1628   1.508       .  S
Zr1505     O3950   2.546       .  S
Zr1505     O1506   2.436       .  S
Zr1505     O1507   2.432       .  S
Zr1505     O1513   2.364       .  S
Zr1505     O3962   2.389       .  S
Zr1505     O3965   2.385       .  S
Zr1505     O1515   2.363       .  S
O1506      H1526   0.990       .  S
O1506      H1531   0.990       .  S
O1507      H1527   0.990       .  S
Zr1508     O3944   2.416       .  S
Zr1508     O1509   2.435       .  S
Zr1508     O1510   2.442       .  S
Zr1508     O3962   2.352       .  S
Zr1508     O1513   2.379       .  S
Zr1508     O1518   2.380       .  S
Zr1508     O3964   2.377       .  S
O1509      H1525   0.989       .  S
O1510      H1524   0.990       .  S
O1510      H1534   0.990       .  S
Zr1511     O1514   2.374   1_455  S
Zr1511     O1516   2.389   1_455  S
Zr1511     O1517   2.407   1_455  S
Zr1512     O1513   2.390       .  S
Zr1512     O1515   2.408       .  S
Zr1512     O1518   2.385       .  S
O1513      H1521   0.964       .  S
O1514     Zr3953   2.380       .  S
O1514     Zr3956   2.382       .  S
O1516     Zr3936   2.381       .  S
O1516     Zr3956   2.385       .  S
O1516      H1520   0.966       .  S
O1517     Zr3933   2.370       .  S
O1517     Zr3953   2.385       .  S
O1517      H1522   0.965   1_655  S
H1528      O3935   0.990       .  S
H1529      O3934   0.990       .  S
O1535     Zr3995   2.430   1_455  S
O1535      C1537   1.275       .  A
O1536     Zr1573   2.435       .  S
O1536      C1537   1.278       .  A
C1537      C1808   1.489       .  S
O1538     Zr1550   2.558       .  S
O1538      C1540   1.312       .  A
O1539     Zr1574   2.368       .  S
O1539      C1540   1.275       .  A
C1540      C1638   1.504       .  S
O1541     Zr3998   2.562   1_455  S
O1541      C1543   1.312       .  A
O1542     Zr1573   2.350       .  S
O1542      C1543   1.273       .  A
C1543      C1648   1.497       .  S
O1544     Zr1547   2.412       .  S
O1544      C1546   1.273       .  A
O1545     Zr1574   2.455       .  S
O1545      C1546   1.280       .  A
C1546      C1731   1.505       .  S
Zr1547     O3983   2.416       .  S
Zr1547     O1548   2.437       .  S
Zr1547     O1549   2.438       .  S
Zr1547     O4001   2.277       .  S
Zr1547     O1554   2.385       .  S
Zr1547     O1577   2.376       .  S
Zr1547     O4027   2.408       .  S
O1548      H4039   0.989       .  S
O1549      H1590   0.990       .  S
O1549      H1594   0.990       .  S
Zr1550     O3989   2.593       .  S
Zr1550     O1551   2.434       .  S
Zr1550     O1552   2.434       .  S
Zr1550     O4001   2.283       .  S
Zr1550     O1554   2.369       .  S
Zr1550     O4026   2.351       .  S
Zr1550     O1580   2.383       .  S
O1551      H1592   0.990       .  S
O1551      H1595   0.990       .  S
O1552      H4033   0.990       .  S
O1553     Zr3995   2.380   1_455  S
O1553     Zr3998   2.381   1_455  S
O1553     Zr1573   2.384       .  S
O1554     Zr1574   2.403       .  S
O1554      H1581   0.964       .  S
O1555     Zr1567   2.408       .  S
O1555      C1557   1.271       .  A
O1556     Zr1574   2.455       .  S
O1556      C1557   1.281       .  A
C1557      C1718   1.497       .  S
O1558     Zr4018   2.547   1_455  S
O1558      C1560   1.306       .  A
O1559     Zr1573   2.335       .  S
O1559      C1560   1.261       .  A
C1560      C1608   1.492       .  S
O1561     Zr1570   2.539       .  S
O1561      C1563   1.308       .  A
O1562     Zr1574   2.344       .  S
O1562      C1563   1.270       .  A
C1563      C1601   1.501       .  S
O1564     Zr4015   2.387   1_455  S
O1564      C1566   1.275       .  A
O1565     Zr1573   2.492       .  S
O1565      C1566   1.294       .  A
C1566      C1798   1.489       .  S
Zr1567     O4012   2.380       .  S
Zr1567     O1568   2.440       .  S
Zr1567     O1569   2.436       .  S
Zr1567     O1575   2.381       .  S
Zr1567     O4024   2.364       .  S
Zr1567     O4027   2.375       .  S
Zr1567     O1577   2.381       .  S
O1568      H1588   0.990       .  S
O1568      H1593   0.990       .  S
O1569      H1589   0.990       .  S
Zr1570     O4006   2.570       .  S
Zr1570     O1571   2.436       .  S
Zr1570     O1572   2.433       .  S
Zr1570     O4024   2.364       .  S
Zr1570     O1575   2.388       .  S
Zr1570     O1580   2.388       .  S
Zr1570     O4026   2.384       .  S
O1571      H1587   0.990       .  S
O1572      H1586   0.990       .  S
O1572      H1596   0.990       .  S
Zr1573     O1576   2.244       .  S
Zr1573     O1578   2.414       .  S
Zr1573     O1579   2.380       .  S
Zr1574     O1575   2.402       .  S
Zr1574     O1577   2.384       .  S
Zr1574     O1580   2.412       .  S
O1575      H1583   0.965       .  S
O1576     Zr4015   2.269   1_455  S
O1576     Zr4018   2.278   1_455  S
O1578     Zr3998   2.382   1_455  S
O1578     Zr4018   2.370   1_455  S
O1578      H1582   0.965       .  S
O1579     Zr3995   2.412   1_455  S
O1579     Zr4015   2.367   1_455  S
O1579      H1584   0.966       .  S
H1585      O4000   0.990       .  S
H1591      O3996   0.988       .  S
C1597      C1598   1.394       .  A
C1597      C1602   1.400       .  A
C1597      F1604   1.357       .  S
C1598      C1599   1.423       .  A
C1599      C1600   1.403       .  A
C1599      F1606   1.355       .  S
C1600      C1601   1.398       .  A
C1600      F1605   1.358       .  S
C1601      C1602   1.430       .  A
C1602      F1603   1.358       .  S
C1607      C1608   1.427       .  A
C1607      C1612   1.399       .  A
C1607      F1614   1.357       .  S
C1608      C1609   1.391       .  A
C1609      C1610   1.401       .  A
C1609      F1616   1.357       .  S
C1610      C1611   1.431       .  A
C1610      F1615   1.356       .  S
C1611      C1612   1.395       .  A
C1612      F1613   1.358       .  S
C1617      C1618   1.419       .  A
C1617      C1622   1.415       .  A
C1617      F1624   1.355       .  S
C1618      C1619   1.406       .  A
C1619      C1620   1.413       .  A
C1619      F1626   1.357       .  S
C1620      C1621   1.417       .  A
C1620      F1625   1.357       .  S
C1621      C1622   1.406       .  A
C1622      F1623   1.357       .  S
C1627      C1628   1.422       .  A
C1627      C1632   1.419       .  A
C1627      F1634   1.357       .  S
C1628      C1629   1.400       .  A
C1629      C1630   1.406       .  A
C1629      F1636   1.358       .  S
C1630      C1631   1.421       .  A
C1630      F1635   1.354       .  S
C1631      C1632   1.406       .  A
C1632      F1633   1.356       .  S
C1637      C1638   1.402       .  A
C1637      C1642   1.408       .  A
C1637      F1644   1.358       .  S
C1638      C1639   1.421       .  A
C1639      C1640   1.413       .  A
C1639      F1646   1.356       .  S
C1640      C1641   1.404       .  A
C1640      F1645   1.356       .  S
C1641      C1642   1.420       .  A
C1642      F1643   1.357       .  S
C1647      C1648   1.419       .  A
C1647      C1652   1.409       .  A
C1647      F1654   1.358       .  S
C1648      C1649   1.403       .  A
C1649      C1650   1.412       .  A
C1649      F1656   1.357       .  S
C1650      C1651   1.419       .  A
C1650      F1655   1.357       .  S
C1651      C1652   1.404       .  A
C1652      F1653   1.358       .  S
C1657      C1658   1.424       .  A
C1657      C1662   1.405       .  A
C1657      F1664   1.355       .  S
C1658      C1659   1.396       .  A
C1659      C1660   1.402       .  A
C1659      F1666   1.358       .  S
C1660      C1661   1.423       .  A
C1660      F1665   1.354       .  S
C1661      C1662   1.396       .  A
C1662      F1663   1.357       .  S
C1667      C1668   1.418       .  A
C1667      C1672   1.407       .  A
C1667      F1674   1.358       .  S
C1668      C1669   1.404       .  A
C1669      C1670   1.409       .  A
C1669      F1676   1.358       .  S
C1670      C1671   1.418       .  A
C1670      F1675   1.358       .  S
C1671      C1672   1.401       .  A
C1672      F1673   1.357       .  S
C1677      C1678   1.429       .  A
C1677      C1682   1.401       .  A
C1677      F1684   1.358       .  S
C1678      C1679   1.405       .  A
C1679      C1680   1.408       .  A
C1679      F1686   1.358       .  S
C1680      C1681   1.416       .  A
C1680      F1685   1.356       .  S
C1681      C1682   1.392       .  A
C1682      F1683   1.358       .  S
C1687      C1688   1.409       .  A
C1687      C1692   1.421       .  A
C1687      F2306   1.350       .  S
C1688      C1689   1.411       .  A
C1689      C1690   1.398       .  A
C1689      F1696   1.356       .  S
C1690      C1691   1.409       .  A
C1690      F1695   1.359       .  S
C1691      C1692   1.417       .  A
C1692      F1693   1.357       .  S
F1694      C2299   1.355       .  S
C1697      C1698   1.418       .  A
C1697      C1702   1.420       .  A
C1697      F1704   1.355       .  S
C1698      C1699   1.415       .  A
C1699      C1700   1.396       .  A
C1699      F1706   1.355       .  S
C1700      C1701   1.400       .  A
C1700      F1705   1.359       .  S
C1701      C1702   1.411       .  A
C1702      F1703   1.357       .  S
C1707      C1708   1.398       .  A
C1707      C1712   1.403       .  A
C1707      F1714   1.357       .  S
C1708      C1709   1.432       .  A
C1709      C1710   1.397       .  A
C1709      F1716   1.359       .  S
C1710      C1711   1.389       .  A
C1710      F1715   1.358       .  S
C1711      C1712   1.419       .  A
C1712      F1713   1.358       .  S
C1717      C1718   1.410       .  A
C1717      C1722   1.396       .  A
C1717      F1724   1.357       .  S
C1718      C1719   1.413       .  A
C1719      C1720   1.408       .  A
C1719      F1726   1.357       .  S
C1720      C1721   1.414       .  A
C1720      F1725   1.358       .  S
C1721      C1722   1.406       .  A
C1722      F1723   1.354       .  S
C1727      C1728   1.409       .  A
C1727      C1732   1.398       .  A
C1727      F1734   1.355       .  S
C1728      C1729   1.412       .  A
C1729      C1730   1.414       .  A
C1729      F1736   1.357       .  S
C1730      C1731   1.417       .  A
C1730      F1735   1.355       .  S
C1731      C1732   1.407       .  A
C1732      F1733   1.356       .  S
C1737      C1738   1.404       .  A
C1737      C1742   1.393       .  A
C1737      F1744   1.353       .  S
C1738      C1739   1.411       .  A
C1739      C1740   1.414       .  A
C1739      F1746   1.356       .  S
C1740      C1741   1.412       .  A
C1740      F1745   1.352       .  S
C1741      C1742   1.401       .  A
C1742      F1743   1.358       .  S
C1747      C1748   1.403       .  A
C1747      C1752   1.410       .  A
C1747      F1754   1.357       .  S
C1748      C1749   1.408       .  A
C1749      C1750   1.387       .  A
C1749      F1756   1.351       .  S
C1750      C1751   1.394       .  A
C1750      F1755   1.358       .  S
C1751      C1752   1.416       .  A
C1752      F1753   1.355       .  S
C1757      C1758   1.424       .  A
C1757      C1762   1.398       .  A
C1757      F1764   1.356       .  S
C1758      C1759   1.404       .  A
C1759      C1760   1.404       .  A
C1759      F1766   1.357       .  S
C1760      C1761   1.412       .  A
C1760      F1765   1.358       .  S
C1761      C1762   1.394       .  A
C1762      F1763   1.358       .  S
C1767      C1768   1.415       .  A
C1767      C1772   1.401       .  A
C1767      F1774   1.357       .  S
C1768      C1769   1.395       .  A
C1769      C1770   1.401       .  A
C1769      F1776   1.358       .  S
C1770      C1771   1.425       .  A
C1770      F1775   1.358       .  S
C1771      C1772   1.402       .  A
C1772      F1773   1.357       .  S
C1777      C1778   1.407       .  A
C1777      C1782   1.402       .  A
C1777      F1784   1.358       .  S
C1778      C1779   1.401       .  A
C1779      C1780   1.401       .  A
C1779      F1786   1.358       .  S
C1780      C1781   1.411       .  A
C1780      F1785   1.348       .  S
C1781      C1782   1.412       .  A
C1782      F1783   1.357       .  S
C1787      C1788   1.401       .  A
C1787      C1792   1.400       .  A
C1787      F1794   1.357       .  S
C1788      C1789   1.427       .  A
C1789      C1790   1.399       .  A
C1789      F1796   1.358       .  S
C1790      C1791   1.393       .  A
C1790      F1795   1.358       .  S
C1791      C1792   1.414       .  A
C1792      F1793   1.358       .  S
C1797      C1798   1.415       .  A
C1797      C1802   1.401       .  A
C1797      F1804   1.357       .  S
C1798      C1799   1.399       .  A
C1799      C1800   1.409       .  A
C1799      F1806   1.357       .  S
C1800      C1801   1.417       .  A
C1800      F1805   1.353       .  S
C1801      C1802   1.398       .  A
C1802      F1803   1.357       .  S
C1807      C1808   1.411       .  A
C1807      C1812   1.412       .  A
C1807      F1814   1.357       .  S
C1808      C1809   1.403       .  A
C1809      C1810   1.384       .  A
C1809      F1816   1.348       .  S
C1810      C1811   1.402       .  A
C1810      F1815   1.358       .  S
C1811      C1812   1.412       .  A
C1812      F1813   1.356       .  S
C1817      C1818   1.389       .  A
C1817      C1822   1.387       .  A
C1817      F1824   1.358       .  S
C1818      C1819   1.412       .  A
C1819      C1820   1.394       .  A
C1819      F1826   1.356       .  S
C1820      C1821   1.395       .  A
C1820      F1825   1.358       .  S
C1821      C1822   1.417       .  A
C1822      F1823   1.359       .  S
C1827      C1828   1.402       .  A
C1827      C1832   1.403       .  A
C1827      F1834   1.358       .  S
C1828      C1829   1.416       .  A
C1829      C1830   1.391       .  A
C1829      F1836   1.357   1_455  S
C1830      C1831   1.390       .  A
C1830      F1835   1.358       .  S
C1831      C1832   1.414       .  A
C1832      F1833   1.359       .  S
O1837     Zr1849   2.536       .  S
O1837      C1839   1.305       .  A
O1838      C1839   1.273       .  A
C1839      C2400   1.500       .  S
O1840     Zr1852   2.441       .  S
O1840      C1842   1.279       .  A
O1841     Zr1876   2.434       .  S
O1841      C1842   1.275       .  A
C1842      C2423   1.492       .  S
O1843     Zr1852   2.409       .  S
O1843      C1845   1.275       .  A
O1844      C1845   1.284       .  A
C1845      C2443   1.500       .  S
O1846     Zr1849   2.515       .  S
O1846      C1848   1.301       .  A
O1847     Zr1876   2.341       .  S
O1847      C1848   1.274       .  A
C1848      C2390   1.463       .  S
Zr1849     O1850   2.435       .  S
Zr1849     O1851   2.436       .  S
Zr1849     O1855   2.276       .  S
Zr1849     O1856   2.386       .  S
O1850      H1893   0.990       .  S
O1851      H1892   0.990       .  S
O1851      H1896   0.990       .  S
Zr1852     O1853   2.437       .  S
Zr1852     O1854   2.430       .  S
Zr1852     O1855   2.273       .  S
Zr1852     O1856   2.373       .  S
Zr1852     O1880   2.390       .  S
Zr1852     O1882   2.384       .  S
O1853      H1894   0.990       .  S
O1853      H1897   0.989       .  S
O1854      H1887   0.989       .  S
O1856     Zr1876   2.415       .  S
O1856      H1883   0.965       .  S
O1857     Zr1869   2.520       .  S
O1857      C1859   1.296       .  A
O1858      C1859   1.263       .  A
C1859      C2370   1.504       .  S
O1860     Zr1872   2.387       .  S
O1860      C1862   1.276       .  A
O1861     Zr1875   2.438       .  S
O1861      C1862   1.287       .  A
C1862      C2433   1.481       .  S
O1863     Zr1872   2.445       .  S
O1863      C1865   1.288       .  A
O1864      C1865   1.285       .  A
C1865      C2413   1.464       .  S
O1866     Zr1869   2.544       .  S
O1866      C1868   1.307       .  A
O1867     Zr1875   2.362       .  S
O1867      C1868   1.274       .  A
C1868      C2383   1.512       .  S
Zr1869     O1870   2.436       .  S
Zr1869     O1871   2.434       .  S
Zr1869     O1878   2.281       .  S
Zr1869     O1877   2.379       .  S
Zr1869     O1881   2.379       .  S
Zr1869     O1879   2.389       .  S
O1870      H1890   0.990       .  S
O1870      H1895   0.989       .  S
O1871      H1891   0.990       .  S
Zr1872     O1873   2.440       .  S
Zr1872     O1874   2.436       .  S
Zr1872     O1878   2.280       .  S
Zr1872     O1877   2.367       .  S
O1873      H1889   0.990       .  S
O1874      H1888   0.990       .  S
O1874      H1898   0.989       .  S
Zr1875     O1878   2.239       .  S
Zr1875     O1881   2.401       .  S
Zr1876     O1882   2.390       .  S
O1877      H1885   0.957       .  S
O1880      H1884   0.966       .  S
O1881      H1886   0.966       .  S
O1899     Zr1911   2.410       .  S
O1899      C1901   1.280       .  A
O1900      C1901   1.287       .  A
C1901      C2360   1.492       .  S
O1902     Zr1914   2.576       .  S
O1902      C1904   1.313       .  A
O1903      C1904   1.268       .  A
C1904      C2290   1.513       .  S
O1905     Zr1914   2.534       .  S
O1905      C1907   1.305       .  A
O1906     Zr1937   2.328       .  S
C1907      C2300   1.480       .  S
O1908     Zr1911   2.404       .  S
O1908      C1910   1.279       .  A
O1909      C1910   1.291       .  A
C1910      C2340   1.470       .  S
Zr1911     O1912   2.438       .  S
Zr1911     O1913   2.443       .  S
Zr1911     O1917   2.279       .  S
Zr1911     O1918   2.370       .  S
O1912      H1955   0.990       .  S
O1913      H1954   0.990       .  S
O1913      H1958   0.990       .  S
Zr1914     O1915   2.439       .  S
Zr1914     O1916   2.434       .  S
Zr1914     O1917   2.304       .  S
Zr1914     O1918   2.345       .  S
O1915      H1956   0.990       .  S
O1915      H1959   0.990       .  S
O1916      H1949   0.990       .  S
O1918      H1945   0.954       .  S
O1919     Zr1931   2.408       .  S
O1919      C1921   1.281       .  A
O1920     Zr1938   2.462       .  S
O1920      C1921   1.292       .  A
C1921      C2333   1.480       .  S
O1922     Zr1934   2.539       .  S
O1922      C1924   1.301       .  A
O1923     Zr1937   2.335   1_556  S
O1923      C1924   1.253       .  A
C1924      C2320   1.491       .  S
O1925     Zr1934   2.525       .  S
O1925      C1927   1.305       .  A
O1926     Zr1938   2.382       .  S
O1926      C1927   1.278       .  A
C1927      C2313   1.486       .  S
O1928     Zr1931   2.407       .  S
O1928      C1930   1.278       .  A
O1929     Zr1937   2.444   1_556  S
O1929      C1930   1.284       .  A
C1930      C2353   1.468       .  S
Zr1931     O1932   2.444       .  S
Zr1931     O1933   2.434       .  S
Zr1931     O1940   2.268       .  S
Zr1931     O1939   2.381       .  S
Zr1931     O1943   2.388       .  S
Zr1931     O1941   2.375       .  S
O1932      H1952   0.991       .  S
O1932      H1957   0.990       .  S
O1933      H1953   0.990       .  S
Zr1934     O1935   2.436       .  S
Zr1934     O1936   2.435       .  S
Zr1934     O1940   2.284       .  S
Zr1934     O1939   2.357       .  S
Zr1934     O1944   2.388   1_556  S
Zr1934     O1942   2.366   1_556  S
O1935      H1951   0.990       .  S
O1936      H1950   0.990       .  S
O1936      H1960   0.990       .  S
Zr1937     O1940   2.258   1_554  S
Zr1937     O1942   2.422       .  S
Zr1937     O1943   2.373   1_554  S
Zr1938     O1939   2.387       .  S
Zr1938     O1941   2.385       .  S
Zr1938     O1944   2.412   1_556  S
O1939      H1947   0.963       .  S
O1942      H1946   0.966       .  S
O1943      H1948   0.966       .  S
O1961     Zr1973   2.532       .  S
O1961      C1963   1.305       .  A
O1962      C1963   1.269       .  A
C1963      C2283   1.469       .  S
O1964     Zr1976   2.390       .  S
O1964      C1966   1.277       .  A
O1965     Zr2000   2.513       .  S
O1965      C1966   1.303       .  A
C1966      C2303   1.500       .  S
O1967     Zr1976   2.382       .  S
O1967      C1969   1.268       .  A
O1968      C1969   1.287       .  A
C1969      C2403   1.481       .  S
O1970     Zr1973   2.561       .  S
O1970      C1972   1.307       .  A
O1971     Zr2000   2.338       .  S
O1971      C1972   1.259       .  A
C1972      C2273   1.502       .  S
Zr1973     O1974   2.435       .  S
Zr1973     O1975   2.440       .  S
Zr1973     O1979   2.293       .  S
Zr1973     O1980   2.351       .  S
Zr1973     O2003   2.361       .  S
O1974      H2017   0.990       .  S
O1975      H2016   0.990       .  S
O1975      H2020   0.990       .  S
Zr1976     O1977   2.443       .  S
Zr1976     O1978   2.434       .  S
Zr1976     O1979   2.285       .  S
Zr1976     O1980   2.368       .  S
Zr1976     O2004   2.371       .  S
Zr1976     O2006   2.359       .  S
O1977      H2018   0.990       .  S
O1977      H2021   0.989       .  S
O1978      H2011   0.990       .  S
O1980     Zr2000   2.385       .  S
O1980      H2007   0.962       .  S
O1981     Zr1993   2.583       .  S
O1981      C1983   1.318       .  A
O1982      C1983   1.279       .  A
C1983      C2253   1.509       .  S
O1984     Zr1996   2.384       .  S
O1984      C1986   1.268       .  A
O1985     Zr1999   2.460       .  S
O1985      C1986   1.286       .  A
C1986      C2393   1.488       .  S
O1987     Zr1996   2.408       .  S
O1987      C1989   1.272       .  A
O1988      C1989   1.282       .  A
C1989      C2293   1.492       .  S
O1990     Zr1993   2.574       .  S
O1990      C1992   1.315       .  A
O1991     Zr1999   2.360       .  S
O1991      C1992   1.274       .  A
C1992      C2263   1.506       .  S
Zr1993     O1994   2.436       .  S
Zr1993     O1995   2.433       .  S
Zr1993     O2001   2.376       .  S
Zr1993     O2002   2.385       .  S
Zr1993     O2005   2.379       .  S
O1994      H2014   0.990       .  S
O1994      H2019   0.990       .  S
O1995      H2015   0.990       .  S
Zr1996     O1997   2.437       .  S
Zr1996     O1998   2.440       .  S
Zr1996     O2002   2.379       .  S
Zr1996     O2001   2.356       .  S
O1997      H2013   0.989       .  S
O1998      H2012   0.989       .  S
O1998      H2022   0.990       .  S
Zr1999     O2002   2.385       .  S
Zr1999     O2005   2.419       .  S
Zr2000     O2003   2.431       .  S
Zr2000     O2006   2.363       .  S
O2001      H2009   0.961       .  S
O2004      H2008   0.966       .  S
O2005      H2010   0.964       .  S
O2023     Zr2035   2.402       .  S
O2023      C2025   1.275       .  A
O2024      C2025   1.300       .  A
C2025      C2380   1.484       .  S
O2026     Zr2038   2.569       .  S
O2026      C2028   1.315       .  A
O2027      C2028   1.277       .  A
C2028      C2230   1.513       .  S
O2029     Zr2038   2.575       .  S
O2029      C2031   1.310       .  A
O2030      C2031   1.258       .  A
C2031      C2243   1.514       .  S
O2032     Zr2035   2.389       .  S
O2032      C2034   1.275       .  A
O2033      C2034   1.295       .  A
C2034      C2323   1.475       .  S
Zr2035     O2036   2.440       .  S
Zr2035     O2037   2.442       .  S
Zr2035     O2041   2.361       .  S
Zr2035     O2042   2.383       .  S
O2036      H2079   0.990       .  S
O2037      H2078   0.989       .  S
O2037      H2082   0.990       .  S
Zr2038     O2039   2.439       .  S
Zr2038     O2040   2.435       .  S
Zr2038     O2042   2.375       .  S
Zr2038     O2041   2.373       .  S
O2039      H2080   0.990       .  S
O2039      H2083   0.990       .  S
O2040      H2073   0.990       .  S
O2042      H2069   0.962       .  S
O2043     Zr2055   2.403       .  S
O2043      C2045   1.275       .  A
O2044     Zr2062   2.478       .  S
O2044      C2045   1.293       .  A
C2045      C2310   1.507       .  S
O2046     Zr2058   2.542       .  S
O2046      C2048   1.305       .  A
O2047     Zr2061   2.309       .  S
O2047      C2048   1.262       .  A
C2048      C2223   1.484       .  S
O2049     Zr2058   2.521       .  S
O2049      C2051   1.305       .  A
O2050     Zr2062   2.346       .  S
O2050      C2051   1.273       .  A
C2051      C2210   1.469       .  S
O2052     Zr2055   2.365       .  S
O2052      C2054   1.259       .  A
O2053     Zr2061   2.499       .  S
O2053      C2054   1.290       .  A
C2054      C2373   1.487       .  S
Zr2055     O2056   2.437       .  S
Zr2055     O2057   2.434       .  S
Zr2055     O2063   2.358       .  S
Zr2055     O2064   2.355       .  S
Zr2055     O2067   2.402       .  S
Zr2055     O2065   2.352       .  S
O2056      H2076   0.990       .  S
O2056      H2081   0.989       .  S
O2057      H2077   0.988       .  S
Zr2058     O2059   2.435       .  S
Zr2058     O2060   2.435       .  S
Zr2058     O2064   2.367       .  S
Zr2058     O2063   2.377       .  S
Zr2058     O2068   2.362       .  S
Zr2058     O2066   2.381       .  S
O2059      H2075   0.990       .  S
O2060      H2074   0.990       .  S
O2060      H2084   0.990       .  S
Zr2061     O2064   2.321       .  S
Zr2061     O2066   2.408       .  S
Zr2061     O2067   2.350       .  S
Zr2062     O2063   2.408       .  S
Zr2062     O2065   2.389       .  S
Zr2062     O2068   2.424       .  S
O2063      H2071   0.965       .  S
O2066      H2070   0.966       .  S
O2067      H2072   0.965       .  S
O2085     Zr4545   2.525   1_455  S
O2085      C2087   1.303       .  A
O2086     Zr2123   2.317       .  S
O2086      C2087   1.267       .  A
C2087      C2280   1.465       .  S
O2088     Zr2100   2.433       .  S
O2088      C2090   1.277       .  A
O2089     Zr2124   2.456       .  S
O2089      C2090   1.283       .  A
C2090      C2363   1.488       .  S
O2091     Zr4548   2.399   1_455  S
O2091      C2093   1.272       .  A
O2092     Zr2123   2.478       .  S
O2092      C2093   1.287       .  A
C2093      C2440   1.503       .  S
O2094     Zr2097   2.519       .  S
O2094      C2096   1.296       .  A
O2095     Zr2124   2.376       .  S
O2095      C2096   1.262       .  A
C2096      C2270   1.497       .  S
Zr2097     O4533   2.561       .  S
Zr2097     O2098   2.434       .  S
Zr2097     O2099   2.432       .  S
Zr2097     O4551   2.353       .  S
Zr2097     O2104   2.401       .  S
Zr2097     O2127   2.383       .  S
Zr2097     O4577   2.372       .  S
O2098      H4589   0.990       .  S
O2099      H4588   0.990       .  S
O2099      H2144   0.990       .  S
Zr2100     O4539   2.391       .  S
Zr2100     O2101   2.439       .  S
Zr2100     O2102   2.436       .  S
Zr2100     O2104   2.374       .  S
Zr2100     O4551   2.368       .  S
Zr2100     O4576   2.389       .  S
Zr2100     O2130   2.378       .  S
O2101      H2142   0.990       .  S
O2101      H2145   0.990       .  S
O2102      H2135   0.990       .  S
O2103     Zr4545   2.281       .  S
O2103     Zr4548   2.288       .  S
O2103     Zr2123   2.252   1_655  S
O2104     Zr2124   2.404       .  S
O2104      H2131   0.961       .  S
O2105     Zr2117   2.589       .  S
O2105      C2107   1.318       .  A
O2106     Zr2124   2.334       .  S
O2106      C2107   1.273       .  A
C2107      C2233   1.500       .  S
O2108     Zr4568   2.419   1_455  S
O2108      C2110   1.277       .  A
O2109     Zr2123   2.422       .  S
O2109      C2110   1.283       .  A
C2110      C2430   1.459       .  S
O2111     Zr2120   2.414       .  S
O2111      C2113   1.283       .  A
O2112     Zr2124   2.468       .  S
O2112      C2113   1.293       .  A
C2113      C2350   1.475       .  S
O2114     Zr4565   2.536   1_455  S
O2114      C2116   1.308       .  A
O2115     Zr2123   2.376       .  S
O2115      C2116   1.276       .  A
C2116      C2240   1.506       .  S
Zr2117     O4562   2.551       .  S
Zr2117     O2118   2.434       .  S
Zr2117     O2119   2.420       .  S
Zr2117     O2125   2.355       .  S
Zr2117     O4574   2.390       .  S
Zr2117     O4577   2.368       .  S
Zr2117     O2127   2.358       .  S
O2118      H2138   0.990       .  S
O2118      H2143   0.990       .  S
O2119      H2139   0.991       .  S
Zr2120     O4556   2.398       .  S
Zr2120     O2121   2.438       .  S
Zr2120     O2122   2.441       .  S
Zr2120     O4574   2.371       .  S
Zr2120     O2125   2.373       .  S
Zr2120     O2130   2.367       .  S
Zr2120     O4576   2.380       .  S
O2121      H2137   0.991       .  S
O2122      H2136   0.990       .  S
O2122      H2146   0.990       .  S
Zr2123     O2126   2.248   1_455  S
Zr2123     O2128   2.379   1_455  S
Zr2123     O2129   2.411       .  S
Zr2124     O2125   2.373       .  S
Zr2124     O2127   2.401       .  S
Zr2124     O2130   2.380       .  S
O2125      H2133   0.959       .  S
O2126     Zr4565   2.272       .  S
O2126     Zr4568   2.247       .  S
O2128     Zr4548   2.407       .  S
O2128     Zr4568   2.384       .  S
O2128      H2132   0.966   1_655  S
O2129     Zr4545   2.371   1_455  S
O2129     Zr4565   2.393   1_455  S
O2129      H2134   0.965       .  S
H2140      O4547   0.990       .  S
H2141      O4546   0.990       .  S
O2147     Zr4607   2.424   1_455  S
O2147      C2149   1.270       .  A
O2148     Zr2185   2.453       .  S
O2148      C2149   1.277       .  A
C2149      C2420   1.490       .  S
O2150     Zr2162   2.587       .  S
O2150      C2152   1.317       .  A
O2151     Zr2186   2.358       .  S
O2151      C2152   1.274       .  A
C2152      C2250   1.518       .  S
O2153     Zr4610   2.579   1_455  S
O2153      C2155   1.315       .  A
O2154     Zr2185   2.333       .  S
O2154      C2155   1.269       .  A
C2155      C2260   1.499       .  S
O2156     Zr2159   2.404       .  S
O2156      C2158   1.279       .  A
O2157     Zr2186   2.480       .  S
O2157      C2158   1.295       .  A
C2158      C2343   1.478       .  S
Zr2159     O4595   2.417       .  S
Zr2159     O2160   2.432       .  S
Zr2159     O2161   2.435       .  S
Zr2159     O4613   2.295       .  S
Zr2159     O2166   2.377       .  S
Zr2159     O2189   2.373       .  S
Zr2159     O4639   2.389       .  S
O2160      H4651   0.992       .  S
O2161      H2202   0.990       .  S
O2161      H2206   0.990       .  S
Zr2162     O4601   2.576       .  S
Zr2162     O2163   2.435       .  S
Zr2162     O2164   2.423       .  S
Zr2162     O4613   2.298       .  S
Zr2162     O2166   2.330       .  S
Zr2162     O4638   2.361       .  S
Zr2162     O2192   2.384       .  S
O2163      H2204   0.990       .  S
O2163      H2207   0.990       .  S
O2164      H4645   0.989       .  S
O2165     Zr4607   2.285   1_455  S
O2165     Zr4610   2.292   1_455  S
O2165     Zr2185   2.263       .  S
O2166     Zr2186   2.364       .  S
O2166      H2193   0.956       .  S
O2167     Zr2179   2.395       .  S
O2167      C2169   1.278       .  A
O2168     Zr2186   2.474       .  S
O2168      C2169   1.294       .  A
C2169      C2330   1.469       .  S
O2170     Zr4630   2.543   1_455  S
O2170      C2172   1.301       .  A
O2171     Zr2185   2.338       .  S
O2171      C2172   1.249       .  A
C2172      C2220   1.491       .  S
O2173     Zr2182   2.543       .  S
O2173      C2175   1.307       .  A
O2174     Zr2186   2.330       .  S
O2174      C2175   1.269       .  A
C2175      C2213   1.474       .  S
O2176     Zr4627   2.370       .  S
O2176      C2178   1.273       .  A
O2177     Zr2185   2.466       .  S
O2177      C2178   1.290       .  A
C2178      C2410   1.467       .  S
Zr2179     O4624   2.384       .  S
Zr2179     O2180   2.445       .  S
Zr2179     O2181   2.436       .  S
Zr2179     O4636   2.282       .  S
Zr2179     O2187   2.379       .  S
Zr2179     O4639   2.356       .  S
Zr2179     O2189   2.378       .  S
O2180      H2200   0.990       .  S
O2180      H2205   0.991       .  S
O2181      H2201   0.990       .  S
Zr2182     O4618   2.529       .  S
Zr2182     O2183   2.435       .  S
Zr2182     O2184   2.428       .  S
Zr2182     O4636   2.289       .  S
Zr2182     O2187   2.354       .  S
Zr2182     O2192   2.378       .  S
Zr2182     O4638   2.388       .  S
O2183      H2199   0.990       .  S
O2184      H2198   0.990       .  S
O2184      H2208   0.989       .  S
Zr2185     O2188   2.259       .  S
Zr2185     O2190   2.429       .  S
Zr2185     O2191   2.384       .  S
Zr2186     O2187   2.382       .  S
Zr2186     O2189   2.372       .  S
Zr2186     O2192   2.416       .  S
O2187      H2195   0.961       .  S
O2188     Zr4627   2.279       .  S
O2188     Zr4630   2.285   1_455  S
O2190     Zr4610   2.350   1_455  S
O2190     Zr4630   2.383   1_455  S
O2190      H2194   0.966       .  S
O2191     Zr4607   2.402   1_455  S
O2191     Zr4627   2.369       .  S
O2191      H2196   0.967       .  S
H2197      O4612   0.989       .  S
H2203      O4608   0.989       .  S
C2209      C2210   1.409       .  A
C2209      C2214   1.405       .  A
C2209      F2216   1.356       .  S
C2210      C2211   1.401       .  A
C2211      C2212   1.402       .  A
C2211      F2218   1.358       .  S
C2212      C2213   1.411       .  A
C2212      F2217   1.353       .  S
C2213      C2214   1.404       .  A
C2214      F2215   1.357       .  S
C2219      C2220   1.432       .  A
C2219      C2224   1.399       .  A
C2219      F2226   1.357       .  S
C2220      C2221   1.388       .  A
C2221      C2222   1.395       .  A
C2221      F2228   1.357       .  S
C2222      C2223   1.428       .  A
C2222      F2227   1.353       .  S
C2223      C2224   1.390       .  A
C2224      F2225   1.358       .  S
C2229      C2230   1.425       .  A
C2229      C2234   1.413       .  A
C2229      F2236   1.358       .  S
C2230      C2231   1.404       .  A
C2231      C2232   1.411       .  A
C2231      F2238   1.357       .  S
C2232      C2233   1.418       .  A
C2232      F2237   1.355       .  S
C2233      C2234   1.401       .  A
C2234      F2235   1.356       .  S
C2239      C2240   1.427       .  A
C2239      C2244   1.412       .  A
C2239      F2246   1.357       .  S
C2240      C2241   1.396       .  A
C2241      C2242   1.399       .  A
C2241      F2248   1.359       .  S
C2242      C2243   1.433       .  A
C2242      F2247   1.357       .  S
C2243      C2244   1.400       .  A
C2244      F2245   1.357       .  S
C2249      C2250   1.426       .  A
C2249      C2254   1.413       .  A
C2249      F2256   1.358       .  S
C2250      C2251   1.406       .  A
C2251      C2252   1.416       .  A
C2251      F2258   1.357       .  S
C2252      C2253   1.422       .  A
C2252      F2257   1.357       .  S
C2253      C2254   1.401       .  A
C2254      F2255   1.357       .  S
C2259      C2260   1.423       .  A
C2259      C2264   1.413       .  A
C2259      F2266   1.358       .  S
C2260      C2261   1.399       .  A
C2261      C2262   1.409       .  A
C2261      F2268   1.357       .  S
C2262      C2263   1.423       .  A
C2262      F2267   1.357       .  S
C2263      C2264   1.404       .  A
C2264      F2265   1.358       .  S
C2269      C2270   1.425       .  A
C2269      C2274   1.406       .  A
C2269      F2276   1.356       .  S
C2270      C2271   1.395       .  A
C2271      C2272   1.400       .  A
C2271      F2278   1.358       .  S
C2272      C2273   1.429       .  A
C2272      F2277   1.358       .  S
C2273      C2274   1.397       .  A
C2274      F2275   1.357       .  S
C2279      C2280   1.390       .  A
C2279      C2284   1.394       .  A
C2279      F2286   1.358       .  S
C2280      C2281   1.414       .  A
C2281      C2282   1.399       .  A
C2281      F2288   1.353       .  S
C2282      C2283   1.398       .  A
C2282      F2287   1.359       .  S
C2283      C2284   1.417       .  A
C2284      F2285   1.349       .  S
C2289      C2290   1.429       .  A
C2289      C2294   1.396       .  A
C2289      F2296   1.358       .  S
C2290      C2291   1.407       .  A
C2291      C2292   1.417       .  A
C2291      F2298   1.356       .  S
C2292      C2293   1.417       .  A
C2292      F2297   1.354       .  S
C2293      C2294   1.395       .  A
C2294      F2295   1.359       .  S
C2299      C2300   1.409       .  A
C2299      C2304   1.411       .  A
C2300      C2301   1.404       .  A
C2301      C2302   1.402       .  A
C2301      F2308   1.358       .  S
C2302      C2303   1.416       .  A
C2302      F2307   1.358       .  S
C2303      C2304   1.411       .  A
C2304      F2305   1.355       .  S
C2309      C2310   1.410       .  A
C2309      C2314   1.410       .  A
C2309      F2316   1.356       .  S
C2310      C2311   1.418       .  A
C2311      C2312   1.403       .  A
C2311      F2318   1.354       .  S
C2312      C2313   1.401       .  A
C2312      F2317   1.358       .  S
C2313      C2314   1.411       .  A
C2314      F2315   1.357       .  S
C2319      C2320   1.396       .  A
C2319      C2324   1.402       .  A
C2319      F2326   1.357       .  S
C2320      C2321   1.430       .  A
C2321      C2322   1.396       .  A
C2321      F2328   1.357       .  S
C2322      C2323   1.388       .  A
C2322      F2327   1.358       .  S
C2323      C2324   1.419       .  A
C2324      F2325   1.357       .  S
C2329      C2330   1.391       .  A
C2329      C2334   1.397       .  A
C2329      F2336   1.357       .  S
C2330      C2331   1.418       .  A
C2331      C2332   1.400       .  A
C2331      F2338   1.358       .  S
C2332      C2333   1.397       .  A
C2332      F2337   1.358       .  S
C2333      C2334   1.420       .  A
C2334      F2335   1.358       .  S
C2339      C2340   1.391       .  A
C2339      C2344   1.395       .  A
C2339      F2346   1.358       .  S
C2340      C2341   1.421       .  A
C2341      C2342   1.400       .  A
C2341      F2348   1.354       .  S
C2342      C2343   1.391       .  A
C2342      F2347   1.357       .  S
C2343      C2344   1.420       .  A
C2344      F2345   1.354       .  S
C2349      C2350   1.415       .  A
C2349      C2354   1.397       .  A
C2349      F2356   1.358       .  S
C2350      C2351   1.396       .  A
C2351      C2352   1.401       .  A
C2351      F2358   1.356       .  S
C2352      C2353   1.411       .  A
C2352      F2357   1.355       .  S
C2353      C2354   1.398       .  A
C2354      F2355   1.359       .  S
C2359      C2360   1.408       .  A
C2359      C2364   1.414       .  A
C2359      F2366   1.357       .  S
C2360      C2361   1.414       .  A
C2361      C2362   1.393       .  A
C2361      F2368   1.359       .  S
C2362      C2363   1.399       .  A
C2362      F2367   1.358       .  S
C2363      C2364   1.416       .  A
C2364      F2365   1.355       .  S
C2369      C2370   1.425       .  A
C2369      C2374   1.404       .  A
C2369      F2376   1.358       .  S
C2370      C2371   1.403       .  A
C2371      C2372   1.404       .  A
C2371      F2378   1.357       .  S
C2372      C2373   1.414       .  A
C2372      F2377   1.356       .  S
C2373      C2374   1.398       .  A
C2374      F2375   1.358       .  S
C2379      C2380   1.417       .  A
C2379      C2384   1.415       .  A
C2379      F2386   1.356       .  S
C2380      C2381   1.397       .  A
C2381      C2382   1.400       .  A
C2381      F2388   1.358       .  S
C2382      C2383   1.424       .  A
C2382      F2387   1.357       .  S
C2383      C2384   1.407       .  A
C2384      F2385   1.357       .  S
C2389      C2390   1.407       .  A
C2389      C2394   1.399       .  A
C2389      F2396   1.358       .  S
C2390      C2391   1.403       .  A
C2391      C2392   1.401       .  A
C2391      F2398   1.357       .  S
C2392      C2393   1.410       .  A
C2392      F2397   1.354       .  S
C2393      C2394   1.411       .  A
C2394      F2395   1.358       .  S
C2399      C2400   1.405       .  A
C2399      C2404   1.412       .  A
C2399      F2406   1.357       .  S
C2400      C2401   1.421       .  A
C2401      C2402   1.395       .  A
C2401      F2408   1.357       .  S
C2402      C2403   1.396       .  A
C2402      F2407   1.359       .  S
C2403      C2404   1.415       .  A
C2404      F2405   1.357       .  S
C2409      C2410   1.415       .  A
C2409      C2414   1.390       .  A
C2409      F2416   1.354       .  S
C2410      C2411   1.393       .  A
C2411      C2412   1.398       .  A
C2411      F2418   1.358       .  S
C2412      C2413   1.415       .  A
C2412      F2417   1.350       .  S
C2413      C2414   1.390       .  A
C2414      F2415   1.358       .  S
C2419      C2420   1.412       .  A
C2419      C2424   1.419       .  A
C2419      F2426   1.356       .  S
C2420      C2421   1.400       .  A
C2421      C2422   1.377       .  A
C2421      F2428   1.351       .  S
C2422      C2423   1.396       .  A
C2422      F2427   1.349       .  S
C2423      C2424   1.416       .  A
C2424      F2425   1.356       .  S
C2429      C2430   1.391       .  A
C2429      C2434   1.386       .  A
C2429      F2436   1.358       .  S
C2430      C2431   1.410       .  A
C2431      C2432   1.402       .  A
C2431      F2438   1.358       .  S
C2432      C2433   1.405       .  A
C2432      F2437   1.358       .  S
C2433      C2434   1.420       .  A
C2434      F2435   1.359       .  S
C2439      C2440   1.414       .  A
C2439      C2444   1.416       .  A
C2439      F2446   1.357       .  S
C2440      C2441   1.413       .  A
C2441      C2442   1.389       .  A
C2441      F2448   1.357   1_455  S
C2442      C2443   1.409       .  A
C2442      F2447   1.358       .  S
C2443      C2444   1.415       .  A
C2444      F2445   1.358       .  S
O2449     Zr2461   2.528       .  S
O2449      C2451   1.297       .  A
O2450     Zr3099   2.358   1_554  S
O2450      C2451   1.254       .  A
C2451      C3012   1.494       .  S
O2452     Zr2464   2.417       .  S
O2452      C2454   1.274       .  A
O2453     Zr2488   2.446   1_554  S
O2453      C2454   1.282       .  A
C2454      C3035   1.497       .  S
O2455     Zr2464   2.410       .  S
O2455      C2457   1.276       .  A
O2456     Zr3099   2.458   1_554  S
O2456      C2457   1.284       .  A
C2457      C3055   1.476       .  S
O2458     Zr2461   2.512       .  S
O2458      C2460   1.302       .  A
O2459     Zr2488   2.357   1_554  S
O2459      C2460   1.273       .  A
C2460      C3002   1.496       .  S
Zr2461     O2462   2.435       .  S
Zr2461     O2463   2.435       .  S
Zr2461     O2467   2.380       .  S
Zr2461     O2468   2.375       .  S
Zr2461     O3103   2.395   1_554  S
Zr2461     O3105   2.379   1_554  S
O2462      H2505   0.990       .  S
O2463      H2504   0.990       .  S
O2463      H2508   0.990       .  S
Zr2464     O2465   2.438       .  S
Zr2464     O2466   2.435       .  S
Zr2464     O2468   2.385       .  S
Zr2464     O2467   2.363       .  S
Zr2464     O2492   2.389   1_554  S
Zr2464     O2494   2.403   1_554  S
O2465      H2506   0.990       .  S
O2465      H2509   0.989       .  S
O2466      H2499   0.990       .  S
O2467     Zr3099   2.361   1_554  S
O2468     Zr2488   2.406   1_554  S
O2468      H2495   0.964       .  S
O2469     Zr2481   2.539       .  S
O2469      C2471   1.304       .  A
O2470     Zr3100   2.352       .  S
O2470      C2471   1.268       .  A
C2471      C2982   1.501       .  S
O2472     Zr2484   2.387       .  S
O2472      C2474   1.276       .  A
O2473     Zr2487   2.418       .  S
O2473      C2474   1.282       .  A
C2474      C3045   1.463       .  S
O2475     Zr2484   2.430       .  S
O2475      C2477   1.283       .  A
O2476     Zr3100   2.483       .  S
O2476      C2477   1.294       .  A
C2477      C3025   1.486       .  S
O2478     Zr2481   2.524       .  S
O2478      C2480   1.302       .  A
O2479     Zr2487   2.347       .  S
O2479      C2480   1.270       .  A
C2480      C2995   1.495       .  S
Zr2481     O2482   2.443       .  S
Zr2481     O2483   2.435       .  S
Zr2481     O2490   2.299       .  S
Zr2481     O2489   2.356       .  S
Zr2481     O2493   2.366       .  S
Zr2481     O2491   2.371       .  S
O2482      H2502   0.989       .  S
O2482      H2507   0.989       .  S
O2483      H2503   0.990       .  S
Zr2484     O2485   2.438       .  S
Zr2484     O2486   2.439       .  S
Zr2484     O2490   2.293       .  S
Zr2484     O2489   2.365       .  S
Zr2484     O3106   2.357       .  S
Zr2484     O3104   2.372       .  S
O2485      H2501   0.991       .  S
O2486      H2500   0.989       .  S
O2486      H2510   0.990       .  S
Zr2487     O3062   2.312       .  S
Zr2487     O3068   2.441       .  S
Zr2487     O3079   2.262       .  S
Zr2487     O2490   2.251       .  S
Zr2487     O3104   2.373       .  S
Zr2487     O2493   2.398       .  S
Zr2488     O3082   2.377       .  S
Zr2488     O3088   2.458       .  S
Zr2488     O3101   2.379       .  S
Zr2488     O3103   2.406       .  S
Zr2488     O2494   2.387       .  S
O2489     Zr3100   2.371       .  S
O2489      H2497   0.954       .  S
O2491     Zr3073   2.395       .  S
O2491     Zr3100   2.415       .  S
O2492     Zr3096   2.372       .  S
O2492     Zr3099   2.369       .  S
O2492      H2496   0.966       .  S
O2493     Zr3073   2.378       .  S
O2493      H2498   0.966       .  S
O2494     Zr3096   2.353       .  S
O2511     Zr2523   2.401       .  S
O2511      C2513   1.279       .  A
O2512     Zr3161   2.480   1_554  S
O2512      C2513   1.297       .  A
C2513      C2972   1.494       .  S
O2514     Zr2526   2.545       .  S
O2514      C2516   1.309       .  A
O2515     Zr3162   2.342       .  S
O2515      C2516   1.270   1_556  A
C2516      C2902   1.499       .  S
O2517     Zr2526   2.550       .  S
O2517      C2519   1.309       .  A
O2518     Zr2549   2.368       .  S
O2518      C3131   1.276       .  A
C2519      O3130   1.273       .  A
C2519      C2912   1.481       .  S
O2520     Zr2523   2.415       .  S
O2520      C2522   1.270       .  A
O2521     Zr3162   2.461   1_554  S
O2521      C2522   1.277       .  A
C2522      C2952   1.497       .  S
Zr2523     O2524   2.428       .  S
Zr2523     O2525   2.431       .  S
Zr2523     O2529   2.351       .  S
Zr2523     O2530   2.372       .  S
Zr2523     O3165   2.398   1_554  S
Zr2523     O3167   2.383   1_554  S
O2524      H2567   0.990       .  S
O2525      H2566   0.990       .  S
O2525      H2570   0.990       .  S
Zr2526     O2527   2.438       .  S
Zr2526     O2528   2.435       .  S
Zr2526     O2530   2.371       .  S
Zr2526     O2529   2.367       .  S
Zr2526     O3166   2.380   1_554  S
Zr2526     O3168   2.382   1_554  S
O2527      H2568   0.990       .  S
O2527      H2571   0.990       .  S
O2528      H2561   0.990       .  S
O2529     Zr3161   2.352   1_554  S
O2530     Zr3162   2.404   1_554  S
O2530      H2557   0.964       .  S
O2531     Zr2543   2.431       .  S
O2531      C2533   1.286       .  A
O2532     Zr2550   2.472       .  S
O2532      C2533   1.294       .  A
C2533      C2945   1.485       .  S
O2534     Zr2546   2.515       .  S
O2534      C2536   1.302       .  A
O2535     Zr2549   2.392       .  S
O2535      C2536   1.280       .  A
C2536      C2932   1.487       .  S
O2537     Zr2546   2.565       .  S
O2537      C2539   1.311       .  A
O2538     Zr2550   2.338       .  S
O2538      C2539   1.271       .  A
C2539      C2925   1.483       .  S
O2540     Zr2543   2.398       .  S
O2540      C2542   1.268       .  A
O2541     Zr2549   2.460       .  S
O2541      C2542   1.285       .  A
C2542      C2965   1.489       .  S
Zr2543     O2544   2.436       .  S
Zr2543     O2545   2.436       .  S
Zr2543     O2551   2.366       .  S
Zr2543     O2552   2.397       .  S
Zr2543     O2555   2.412       .  S
Zr2543     O2553   2.383       .  S
O2544      H2564   0.990       .  S
O2544      H2569   0.989       .  S
O2545      H2565   0.990       .  S
Zr2546     O2547   2.436       .  S
Zr2546     O2548   2.434       .  S
Zr2546     O2552   2.398       .  S
Zr2546     O2551   2.343       .  S
Zr2546     O2556   2.369       .  S
Zr2546     O2554   2.385       .  S
O2547      H2563   0.990       .  S
O2548      H2562   0.990       .  S
O2548      H2572   0.990       .  S
Zr2549     O3124   2.481       .  S
Zr2549     O3141   2.254       .  S
Zr2549     O2552   2.388       .  S
Zr2549     O2554   2.410       .  S
Zr2549     O2555   2.398       .  S
Zr2550     O3127   2.368       .  S
Zr2550     O3133   2.471       .  S
Zr2550     O3142   2.392       .  S
Zr2550     O2551   2.363       .  S
Zr2550     O2553   2.375       .  S
Zr2550     O2556   2.417       .  S
O2551      H2559   0.959       .  S
O2553     Zr3135   2.374       .  S
O2554     Zr3138   2.370       .  S
O2554      H2558   0.965       .  S
O2555     Zr3135   2.358       .  S
O2555      H2560   0.967       .  S
O2556     Zr3138   2.381       .  S
O2573     Zr2585   2.560       .  S
O2573      C2575   1.310       .  A
O2574     Zr3835   2.313   1_545  S
O2574      C2575   1.265       .  A
C2575      C2895   1.486       .  S
O2576     Zr2588   2.397       .  S
O2576      C2578   1.268       .  A
O2577     Zr2612   2.493       .  S
O2577      C2578   1.289       .  A
C2578      C2915   1.512       .  S
O2579     Zr2588   2.362       .  S
O2579      C2581   1.269       .  A
O2580     Zr3835   2.461   1_545  S
O2580      C2581   1.291       .  A
C2581      C3015   1.462       .  S
O2582     Zr2585   2.543       .  S
O2582      C2584   1.307       .  A
O2583     Zr2612   2.329       .  S
O2583      C2584   1.269       .  A
C2584      C2885   1.476       .  S
Zr2585     O2586   2.435       .  S
Zr2585     O2587   2.437       .  S
Zr2585     O2591   2.276       .  S
Zr2585     O2592   2.387       .  S
Zr2585     O2615   2.371       .  S
Zr2585     O3841   2.365       .  S
O2586      H2629   0.990       .  S
O2587      H2628   0.990       .  S
O2587      H2632   0.990       .  S
Zr2588     O2589   2.438       .  S
Zr2588     O2590   2.434       .  S
Zr2588     O2591   2.261       .  S
Zr2588     O2592   2.384       .  S
Zr2588     O2616   2.383       .  S
Zr2588     O2618   2.381       .  S
O2589      H2630   0.990       .  S
O2589      H2633   0.991       .  S
O2590      H2623   0.990       .  S
O2591     Zr3835   2.238   1_545  S
O2592     Zr2612   2.401       .  S
O2592      H2619   0.966       .  S
O2593     Zr2605   2.565       .  S
O2593      C2595   1.314       .  A
O2594     Zr3836   2.390       .  S
O2594      C2595   1.280       .  A
C2595      C2865   1.506       .  S
O2596     Zr2608   2.400       .  S
O2596      C2598   1.277       .  A
O2597     Zr2611   2.480       .  S
O2597      C2598   1.292       .  A
C2598      C3005   1.471       .  S
O2599     Zr2608   2.401       .  S
O2599      C2601   1.277       .  A
O2600     Zr3836   2.485       .  S
O2600      C2601   1.297       .  A
C2601      C2905   1.486       .  S
O2602     Zr2605   2.589       .  S
O2602      C2604   1.315       .  A
O2603     Zr2611   2.347       .  S
O2603      C2604   1.266       .  A
C2604      C2875   1.520       .  S
Zr2605     O2606   2.436       .  S
Zr2605     O2607   2.435       .  S
Zr2605     O2613   2.368       .  S
Zr2605     O2614   2.354       .  S
Zr2605     O2617   2.370       .  S
Zr2605     O3839   2.381       .  S
O2606      H2626   0.990       .  S
O2606      H2631   0.990       .  S
O2607      H2627   0.990       .  S
Zr2608     O2609   2.435       .  S
Zr2608     O2610   2.450       .  S
Zr2608     O2614   2.351       .  S
Zr2608     O2613   2.381       .  S
Zr2608     O3842   2.399       .  S
Zr2608     O3840   2.378       .  S
O2609      H2625   0.990       .  S
O2610      H2624   0.987   1_554  S
O2610      H2634   0.988   1_554  S
Zr2611     O3798   2.313       .  S
Zr2611     O3804   2.474       .  S
Zr2611     O3815   2.244       .  S
Zr2611     O2614   2.346       .  S
Zr2611     O3840   2.372       .  S
Zr2611     O2617   2.421       .  S
Zr2612     O3818   2.345   1_545  S
Zr2612     O3824   2.485   1_545  S
Zr2612     O3837   2.380   1_545  S
Zr2612     O2615   2.423       .  S
Zr2612     O2618   2.367       .  S
O2613     Zr3836   2.382       .  S
O2613      H2621   0.961       .  S
O2615     Zr3829   2.384   1_545  S
O2616     Zr3832   2.385   1_545  S
O2616     Zr3835   2.355   1_545  S
O2616      H2620   0.966       .  S
O2617     Zr3809   2.377       .  S
O2617      H2622   0.966       .  S
O2618     Zr3832   2.370   1_545  S
O2635     Zr2647   2.385       .  S
O2635      C2637   1.276       .  A
O2636     Zr3897   2.492   1_545  S
O2636      C2637   1.299       .  A
C2637      C2992   1.490       .  S
O2638     Zr2650   2.573       .  S
O2638      C2640   1.315       .  A
O2639     Zr3898   2.341   1_545  S
O2639      C2640   1.271       .  A
C2640      C2842   1.514       .  S
O2641     Zr2650   2.575       .  S
O2641      C2643   1.316       .  A
O2642     Zr3897   2.340   1_545  S
O2642      C2643   1.272       .  A
C2643      C2855   1.501       .  S
O2644     Zr2647   2.409       .  S
O2644      C2646   1.276       .  A
O2645     Zr3898   2.474   1_545  S
O2645      C2646   1.290       .  A
C2646      C2935   1.499       .  S
Zr2647     O2648   2.435       .  S
Zr2647     O2649   2.445       .  S
Zr2647     O2653   2.355       .  S
Zr2647     O2654   2.377       .  S
Zr2647     O3901   2.393   1_545  S
Zr2647     O3903   2.376   1_545  S
O2648      H2691   0.990       .  S
O2649      H2690   0.990       .  S
O2649      H2694   0.990       .  S
Zr2650     O2651   2.436       .  S
Zr2650     O2652   2.434       .  S
Zr2650     O2654   2.395       .  S
Zr2650     O2653   2.360       .  S
Zr2650     O3902   2.376   1_545  S
Zr2650     O3904   2.358   1_545  S
O2651      H2692   0.990       .  S
O2651      H2695   0.990       .  S
O2652      H2685   0.990       .  S
O2653     Zr3897   2.354   1_545  S
O2654     Zr3898   2.384   1_545  S
O2654      H2681   0.965       .  S
O2655     Zr2667   2.410       .  S
O2655      C2657   1.274       .  A
O2656     Zr2674   2.480       .  S
O2656      C2657   1.292       .  A
C2657      C2922   1.506       .  S
O2658     Zr2670   2.554       .  S
O2658      C2660   1.311       .  A
O2659     Zr2673   2.329       .  S
O2659      C2660   1.270       .  A
C2660      C2835   1.484       .  S
O2661     Zr2670   2.559       .  S
O2661      C2663   1.312       .  A
O2662     Zr2674   2.346       .  S
O2662      C2663   1.269       .  A
C2663      C2822   1.512       .  S
O2664     Zr2667   2.371       .  S
O2664      C2666   1.263       .  A
O2665     Zr2673   2.497       .  S
O2665      C2666   1.293       .  A
C2666      C2985   1.491       .  S
Zr2667     O2668   2.439       .  S
Zr2667     O2669   2.436       .  S
Zr2667     O2676   2.244       .  S
Zr2667     O2675   2.366       .  S
Zr2667     O2679   2.409       .  S
Zr2667     O2677   2.393       .  S
O2668      H2688   0.989       .  S
O2668      H2693   0.991       .  S
O2669      H2689   0.989       .  S
Zr2670     O2671   2.435       .  S
Zr2670     O2672   2.435       .  S
Zr2670     O2676   2.259       .  S
Zr2670     O2675   2.374       .  S
Zr2670     O2680   2.360       .  S
Zr2670     O2678   2.382       .  S
O2671      H2687   0.989       .  S
O2672      H2686   0.990       .  S
O2672      H2696   0.990       .  S
Zr2673     O3860   2.475       .  S
Zr2673     O3866   2.353       .  S
Zr2673     O2676   2.240       .  S
Zr2673     O3877   2.358       .  S
Zr2673     O2678   2.427       .  S
Zr2673     O2679   2.372       .  S
Zr2674     O3863   2.347       .  S
Zr2674     O3869   2.502       .  S
Zr2674     O3878   2.367       .  S
Zr2674     O2675   2.393       .  S
Zr2674     O2677   2.360       .  S
Zr2674     O2680   2.419       .  S
O2675      H2683   0.964       .  S
O2677     Zr3871   2.385       .  S
O2678     Zr3874   2.381       .  S
O2678      H2682   0.966       .  S
O2679     Zr3871   2.380       .  S
O2679      H2684   0.966       .  S
O2680     Zr3874   2.363       .  S
O2697      C2699   1.306       .  A
O2698     Zr2735   2.306       .  S
O2698      C2699   1.264       .  A
C2699      C2892   1.472       .  S
O2700     Zr2712   2.407       .  S
O2700      C2702   1.278       .  A
O2701     Zr2736   2.475       .  S
O2701      C2702   1.293       .  A
C2702      C2975   1.478       .  S
O2703      C2705   1.275       .  A
O2704     Zr2735   2.441       .  S
O2704      C2705   1.284       .  A
C2705      C3052   1.468       .  S
O2706     Zr2709   2.552       .  S
O2706      C2708   1.310       .  A
O2707     Zr2736   2.341       .  S
O2707      C2708   1.271       .  A
C2708      C2882   1.489       .  S
Zr2709     O2710   2.434       .  S
Zr2709     O2711   2.436       .  S
Zr2709     O2716   2.388       .  S
Zr2709     O2739   2.364       .  S
O2711      H2756   0.990       .  S
Zr2712     O2713   2.445       .  S
Zr2712     O2714   2.438   1_655  S
Zr2712     O2716   2.375       .  S
Zr2712     O2742   2.366       .  S
O2713      H2754   0.990   1_655  S
O2713      H2757   0.990       .  S
O2714      H2747   0.990       .  S
O2715     Zr2735   2.244       .  S
O2716     Zr2736   2.382       .  S
O2716      H2743   0.963       .  S
O2717     Zr2729   2.569       .  S
O2717      C2719   1.314       .  A
O2718     Zr2736   2.355       .  S
O2718      C2719   1.271       .  A
C2719      C2845   1.518       .  S
O2720      C2722   1.274       .  A
O2721     Zr2735   2.412       .  S
O2721      C2722   1.273       .  A
C2722      C3042   1.464       .  S
O2723     Zr2732   2.416       .  S
O2723      C2725   1.274       .  A
O2724     Zr2736   2.424       .  S
O2724      C2725   1.277       .  A
C2725      C2962   1.491       .  S
O2726      C2728   1.316       .  A
O2727     Zr2735   2.335       .  S
O2727      C2728   1.268       .  A
C2728      C2852   1.508       .  S
Zr2729     O2730   2.438       .  S
Zr2729     O2731   2.434       .  S
Zr2729     O2737   2.384       .  S
Zr2729     O2739   2.373       .  S
O2730      H2750   0.990       .  S
O2730      H2755   0.990       .  S
O2731      H2751   0.990       .  S
Zr2732     O2733   2.435   1_655  S
Zr2732     O2734   2.438   1_655  S
Zr2732     O2737   2.390       .  S
Zr2732     O2742   2.398       .  S
O2733      H2749   0.990       .  S
O2734      H2748   0.990       .  S
O2734      H2758   0.990       .  S
Zr2735     O2738   2.252       .  S
Zr2735     O2740   2.363       .  S
Zr2735     O2741   2.400       .  S
Zr2736     O2737   2.414       .  S
Zr2736     O2739   2.409       .  S
Zr2736     O2742   2.372       .  S
O2737      H2745   0.965       .  S
O2740      H2744   0.966       .  S
O2741      H2746   0.965       .  S
O2759      C2761   1.266       .  A
O2760     Zr2797   2.452       .  S
O2760      C2761   1.280       .  A
C2761      C3032   1.487       .  S
O2762     Zr2774   2.582       .  S
O2762      C2764   1.316       .  A
O2763     Zr2798   2.344       .  S
O2763      C2764   1.272       .  A
C2764      C2862   1.501       .  S
O2765      C2767   1.312       .  A
O2766     Zr2797   2.379       .  S
O2766      C2767   1.277       .  A
C2767      C2872   1.522       .  S
O2768     Zr2771   2.448       .  S
O2768      C2770   1.279       .  A
O2769     Zr2798   2.438       .  S
O2769      C2770   1.276       .  A
C2770      C2955   1.495       .  S
Zr2771     O2772   2.443       .  S
Zr2771     O2773   2.449       .  S
Zr2771     O2778   2.393       .  S
Zr2771     O2801   2.381       .  S
O2773      H2814   0.990       .  S
O2773      H2818   0.990       .  S
Zr2774     O2775   2.437       .  S
Zr2774     O2776   2.432       .  S
Zr2774     O2778   2.371       .  S
Zr2774     O2804   2.378       .  S
O2775      H2816   0.990       .  S
O2775      H2819   0.990       .  S
O2777     Zr2797   2.273       .  S
O2778     Zr2798   2.407       .  S
O2778      H2805   0.964       .  S
O2779     Zr2791   2.430       .  S
O2779      C2781   1.276       .  A
O2780     Zr2798   2.436       .  S
O2780      C2781   1.278       .  A
C2781      C2942   1.479       .  S
O2782      C2784   1.307       .  A
O2783     Zr2797   2.323       .  S
O2783      C2784   1.267       .  A
C2784      C2832   1.472       .  S
O2785     Zr2794   2.531       .  S
O2785      C2787   1.301       .  A
O2786     Zr2798   2.379       .  S
O2786      C2787   1.265       .  A
C2787      C2825   1.510       .  S
O2788      C2790   1.276       .  A
O2789     Zr2797   2.489       .  S
O2789      C2790   1.296       .  A
C2790      C3022   1.487       .  S
Zr2791     O2792   2.437       .  S
Zr2791     O2793   2.438       .  S
Zr2791     O2799   2.366       .  S
Zr2791     O2801   2.363       .  S
O2792      H2812   0.990       .  S
O2792      H2817   0.990       .  S
O2793      H2813   0.990       .  S
Zr2794     O2795   2.433       .  S
Zr2794     O2796   2.430       .  S
Zr2794     O2799   2.391       .  S
Zr2794     O2804   2.386       .  S
O2795      H2811   0.990       .  S
O2796      H2810   0.990       .  S
O2796      H2820   0.990       .  S
Zr2797     O2800   2.255       .  S
Zr2797     O2802   2.414       .  S
Zr2797     O2803   2.380       .  S
Zr2798     O2799   2.411       .  S
Zr2798     O2801   2.397       .  S
Zr2798     O2804   2.403       .  S
O2799      H2807   0.961       .  S
O2802      H2806   0.965       .  S
O2803      H2808   0.967       .  S
C2821      C2822   1.401       .  A
C2821      C2826   1.409       .  A
C2821      F2828   1.357       .  S
C2822      C2823   1.431       .  A
C2823      C2824   1.403       .  A
C2823      F2830   1.359       .  S
C2824      C2825   1.399       .  A
C2824      F2829   1.358       .  S
C2825      C2826   1.427       .  A
C2826      F2827   1.357       .  S
C2831      C2832   1.418       .  A
C2831      C2836   1.406       .  A
C2831      F2838   1.356       .  S
C2832      C2833   1.389       .  A
C2833      C2834   1.393       .  A
C2833      F2840   1.358       .  S
C2834      C2835   1.420       .  A
C2834      F2839   1.345       .  S
C2835      C2836   1.399       .  A
C2836      F2837   1.357       .  S
C2841      C2842   1.430       .  A
C2841      C2846   1.408       .  A
C2841      F2848   1.358   1_545  S
C2842      C2843   1.398       .  A
C2843      C2844   1.410       .  A
C2843      F2850   1.357       .  S
C2844      C2845   1.433       .  A
C2844      F2849   1.358       .  S
C2845      C2846   1.400       .  A
C2846      F2847   1.357       .  S
C2851      C2852   1.429       .  A
C2851      C2856   1.403       .  A
C2851      F2858   1.355       .  S
C2852      C2853   1.400       .  A
C2853      C2854   1.411       .  A
C2853      F2860   1.358       .  S
C2854      C2855   1.428       .  A
C2854      F2859   1.357   1_545  S
C2855      C2856   1.393       .  A
C2856      F2857   1.358       .  S
C2861      C2862   1.409       .  A
C2861      C2866   1.417       .  A
C2861      F2868   1.356       .  S
C2862      C2863   1.416       .  A
C2863      C2864   1.413       .  A
C2863      F2870   1.358       .  S
C2864      C2865   1.407       .  A
C2864      F2869   1.357       .  S
C2865      C2866   1.415       .  A
C2866      F2867   1.356       .  S
C2871      C2872   1.432       .  A
C2871      C2876   1.416       .  A
C2871      F2878   1.357       .  S
C2872      C2873   1.400       .  A
C2873      C2874   1.407       .  A
C2873      F2880   1.358       .  S
C2874      C2875   1.430       .  A
C2874      F2879   1.358       .  S
C2875      C2876   1.400       .  A
C2876      F2877   1.357       .  S
C2881      C2882   1.416       .  A
C2881      C2886   1.399       .  A
C2881      F2888   1.352       .  S
C2882      C2883   1.403       .  A
C2883      C2884   1.411       .  A
C2883      F2890   1.357       .  S
C2884      C2885   1.416       .  A
C2884      F2889   1.356       .  S
C2885      C2886   1.397       .  A
C2886      F2887   1.358       .  S
C2891      C2892   1.392       .  A
C2891      C2896   1.397       .  A
C2891      F2898   1.355       .  S
C2892      C2893   1.421       .  A
C2893      C2894   1.409       .  A
C2893      F2900   1.358       .  S
C2894      C2895   1.403       .  A
C2894      F2899   1.358       .  S
C2895      C2896   1.420       .  A
C2896      F2897   1.354       .  S
C2901      C2902   1.430       .  A
C2901      C2906   1.401       .  A
C2901      F2908   1.358       .  S
C2902      C2903   1.397       .  A
C2903      C2904   1.402       .  A
C2903      F2910   1.357       .  S
C2904      C2905   1.422       .  A
C2904      F2909   1.358       .  S
C2905      C2906   1.392       .  A
C2906      F2907   1.357       .  S
C2911      C2912   1.413       .  A
C2911      C2916   1.416       .  A
C2911      F3530   1.356       .  S
C2912      C2913   1.400       .  A
C2913      C2914   1.398       .  A
C2913      F2920   1.359       .  S
C2914      C2915   1.417       .  A
C2914      F2919   1.354       .  S
C2915      C2916   1.412       .  A
C2916      F2917   1.356       .  S
F2918      C3523   1.357       .  S
C2921      C2922   1.412       .  A
C2921      C2926   1.409       .  A
C2921      F2928   1.356       .  S
C2922      C2923   1.414       .  A
C2923      C2924   1.409       .  A
C2923      F2930   1.358       .  S
C2924      C2925   1.410       .  A
C2924      F2929   1.357       .  S
C2925      C2926   1.409       .  A
C2926      F2927   1.357       .  S
C2931      C2932   1.409       .  A
C2931      C2936   1.415       .  A
C2931      F2938   1.357       .  S
C2932      C2933   1.404       .  A
C2933      C2934   1.397       .  A
C2933      F2940   1.358       .  S
C2934      C2935   1.411       .  A
C2934      F2939   1.358       .  S
C2935      C2936   1.415       .  A
C2936      F2937   1.357       .  S
C2941      C2942   1.397       .  A
C2941      C2946   1.391       .  A
C2941      F2948   1.359       .  S
C2942      C2943   1.414       .  A
C2943      C2944   1.410       .  A
C2943      F2950   1.353       .  S
C2944      C2945   1.402       .  A
C2944      F2949   1.356       .  S
C2945      C2946   1.413       .  A
C2946      F2947   1.356       .  S
C2951      C2952   1.404       .  A
C2951      C2956   1.389       .  A
C2951      F2958   1.357       .  S
C2952      C2953   1.416       .  A
C2953      C2954   1.416       .  A
C2953      F2960   1.354       .  S
C2954      C2955   1.412       .  A
C2954      F2959   1.358       .  S
C2955      C2956   1.396       .  A
C2956      F2957   1.348       .  S
C2961      C2962   1.406       .  A
C2961      C2966   1.392       .  A
C2961      F2968   1.358       .  S
C2962      C2963   1.414       .  A
C2963      C2964   1.405       .  A
C2963      F2970   1.357       .  S
C2964      C2965   1.406       .  A
C2964      F2969   1.356       .  S
C2965      C2966   1.409       .  A
C2966      F2967   1.355       .  S
C2971      C2972   1.401       .  A
C2971      C2976   1.405       .  A
C2971      F2978   1.357       .  S
C2972      C2973   1.421       .  A
C2973      C2974   1.401       .  A
C2973      F2980   1.358       .  S
C2974      C2975   1.395       .  A
C2974      F2979   1.358       .  S
C2975      C2976   1.415       .  A
C2976      F2977   1.358       .  S
C2981      C2982   1.429       .  A
C2981      C2986   1.404       .  A
C2981      F2988   1.359       .  S
C2982      C2983   1.399       .  A
C2983      C2984   1.401       .  A
C2983      F2990   1.356       .  S
C2984      C2985   1.416       .  A
C2984      F2989   1.357       .  S
C2985      C2986   1.398       .  A
C2986      F2987   1.358       .  S
C2991      C2992   1.423       .  A
C2991      C2996   1.402       .  A
C2991      F2998   1.359       .  S
C2992      C2993   1.396       .  A
C2993      C2994   1.398       .  A
C2993      F3000   1.358       .  S
C2994      C2995   1.424       .  A
C2994      F2999   1.357       .  S
C2995      C2996   1.400       .  A
C2996      F2997   1.358       .  S
C3001      C3002   1.403       .  A
C3001      C3006   1.400       .  A
C3001      F3008   1.357       .  S
C3002      C3003   1.427       .  A
C3003      C3004   1.396       .  A
C3003      F3010   1.358       .  S
C3004      C3005   1.390       .  A
C3004      F3009   1.358       .  S
C3005      C3006   1.414       .  A
C3006      F3007   1.357       .  S
C3011      C3012   1.399       .  A
C3011      C3016   1.403       .  A
C3011      F3018   1.356       .  S
C3012      C3013   1.428       .  A
C3013      C3014   1.392       .  A
C3013      F3020   1.358       .  S
C3014      C3015   1.391       .  A
C3014      F3019   1.359       .  S
C3015      C3016   1.414       .  A
C3016      F3017   1.358       .  S
C3021      C3022   1.417       .  A
C3021      C3026   1.405       .  A
C3021      F3028   1.358       .  S
C3022      C3023   1.398       .  A
C3023      C3024   1.404       .  A
C3023      F3030   1.358       .  S
C3024      C3025   1.418       .  A
C3024      F3029   1.355       .  S
C3025      C3026   1.398       .  A
C3026      F3027   1.357       .  S
C3031      C3032   1.407       .  A
C3031      C3036   1.404       .  A
C3031      F3038   1.355       .  S
C3032      C3033   1.407       .  A
C3033      C3034   1.394       .  A
C3033      F3040   1.358       .  S
C3034      C3035   1.408       .  A
C3034      F3039   1.352       .  S
C3035      C3036   1.411       .  A
C3036      F3037   1.352       .  S
C3041      C3042   1.395       .  A
C3041      C3046   1.387       .  A
C3041      F3048   1.358       .  S
C3042      C3043   1.413       .  A
C3043      C3044   1.399       .  A
C3043      F3050   1.349       .  S
C3044      C3045   1.393       .  A
C3044      F3049   1.357       .  S
C3045      C3046   1.411       .  A
C3046      F3047   1.358       .  S
C3051      C3052   1.397       .  A
C3051      C3056   1.400       .  A
C3051      F3058   1.359       .  S
C3052      C3053   1.411       .  A
C3053      C3054   1.397       .  A
C3053      F3060   1.358       .  S
C3054      C3055   1.397       .  A
C3054      F3059   1.357       .  S
C3055      C3056   1.413       .  A
C3056      F3057   1.351       .  S
O3061     Zr3073   2.550       .  S
O3061      C3063   1.308       .  A
O3062      C3063   1.263       .  A
C3063      C3624   1.499       .  S
O3064     Zr3076   2.420       .  S
O3064      C3066   1.276       .  A
O3065     Zr3100   2.414       .  S
O3065      C3066   1.271       .  A
C3066      C3647   1.481       .  S
O3067     Zr3076   2.421       .  S
O3067      C3069   1.273       .  A
O3068      C3069   1.277       .  A
C3069      C3667   1.493       .  S
O3070     Zr3073   2.519       .  S
O3070      C3072   1.302       .  A
O3071     Zr3100   2.361       .  S
O3071      C3072   1.274       .  A
C3072      C3614   1.474       .  S
Zr3073     O3074   2.436       .  S
Zr3073     O3075   2.438       .  S
Zr3073     O3079   2.277       .  S
Zr3073     O3080   2.386       .  S
O3074      H3117   0.990       .  S
O3075      H3116   0.990       .  S
O3075      H3120   0.990       .  S
Zr3076     O3077   2.441       .  S
Zr3076     O3078   2.431       .  S
Zr3076     O3079   2.279       .  S
Zr3076     O3080   2.376       .  S
Zr3076     O3104   2.411       .  S
Zr3076     O3106   2.397       .  S
O3077      H3118   0.989       .  S
O3077      H3121   0.990       .  S
O3078      H3111   0.990       .  S
O3080     Zr3100   2.418       .  S
O3080      H3107   0.965       .  S
O3081     Zr3093   2.535       .  S
O3081      C3083   1.307       .  A
O3082      C3083   1.277       .  A
C3083      C3594   1.515       .  S
O3084     Zr3096   2.392       .  S
O3084      C3086   1.278       .  A
O3085     Zr3099   2.439       .  S
O3085      C3086   1.286       .  A
C3086      C3657   1.467       .  S
O3087     Zr3096   2.413       .  S
O3087      C3089   1.281       .  A
O3088      C3089   1.290       .  A
C3089      C3637   1.482       .  S
O3090     Zr3093   2.549       .  S
O3090      C3092   1.308       .  A
O3091     Zr3099   2.326       .  S
O3091      C3092   1.270       .  A
C3092      C3607   1.476       .  S
Zr3093     O3094   2.434       .  S
Zr3093     O3095   2.436       .  S
Zr3093     O3102   2.285       .  S
Zr3093     O3101   2.352       .  S
Zr3093     O3105   2.345       .  S
Zr3093     O3103   2.385       .  S
O3094      H3114   0.990       .  S
O3094      H3119   0.990       .  S
O3095      H3115   0.990       .  S
Zr3096     O3097   2.440       .  S
Zr3096     O3098   2.433       .  S
Zr3096     O3102   2.271       .  S
Zr3096     O3101   2.379       .  S
O3097      H3113   0.990       .  S
O3098      H3112   0.990       .  S
O3098      H3122   0.990       .  S
Zr3099     O3102   2.242       .  S
Zr3099     O3105   2.425       .  S
Zr3100     O3106   2.392       .  S
O3101      H3109   0.961       .  S
O3104      H3108   0.966       .  S
O3105      H3110   0.966       .  S
O3123     Zr3135   2.401       .  S
O3123      C3125   1.278       .  A
O3124      C3125   1.296       .  A
C3125      C3584   1.506       .  S
O3126     Zr3138   2.551       .  S
O3126      C3128   1.300       .  A
O3127      C3128   1.258       .  A
C3128      C3514   1.517       .  S
O3129     Zr3138   2.555       .  S
O3129      C3131   1.311       .  A
O3130     Zr3161   2.343   1_554  S
C3131      C3524   1.519       .  S
O3132     Zr3135   2.426       .  S
O3132      C3134   1.283       .  A
O3133      C3134   1.293       .  A
C3134      C3564   1.478       .  S
Zr3135     O3136   2.439       .  S
Zr3135     O3137   2.437       .  S
Zr3135     O3141   2.284       .  S
Zr3135     O3142   2.352       .  S
O3136      H3179   0.990       .  S
O3137      H3178   0.990       .  S
O3137      H3182   0.988       .  S
Zr3138     O3139   2.434       .  S
Zr3138     O3140   2.435       .  S
Zr3138     O3141   2.287       .  S
Zr3138     O3142   2.372       .  S
O3139      H3180   0.990       .  S
O3139      H3183   0.990       .  S
O3140      H3173   0.990       .  S
O3142      H3169   0.954       .  S
O3143     Zr3155   2.435       .  S
O3143      C3145   1.286       .  A
O3144     Zr3162   2.462       .  S
O3144      C3145   1.292       .  A
C3145      C3557   1.490       .  S
O3146     Zr3158   2.521       .  S
O3146      C3148   1.296       .  A
O3147     Zr3161   2.386       .  S
O3147      C3148   1.266       .  A
C3148      C3544   1.507       .  S
O3149     Zr3158   2.526       .  S
O3149      C3151   1.302       .  A
O3150     Zr3162   2.348       .  S
O3150      C3151   1.270       .  A
C3151      C3537   1.473       .  S
O3152     Zr3155   2.405       .  S
O3152      C3154   1.270       .  A
O3153     Zr3161   2.473       .  S
O3153      C3154   1.284       .  A
C3154      C3577   1.492       .  S
Zr3155     O3156   2.452       .  S
Zr3155     O3157   2.434       .  S
Zr3155     O3164   2.298       .  S
Zr3155     O3163   2.393       .  S
Zr3155     O3167   2.402       .  S
Zr3155     O3165   2.346       .  S
O3156      H3176   0.989       .  S
O3156      H3181   0.990       .  S
O3157      H3177   0.990       .  S
Zr3158     O3159   2.437       .  S
Zr3158     O3160   2.439       .  S
Zr3158     O3164   2.293       .  S
Zr3158     O3163   2.345       .  S
Zr3158     O3168   2.379       .  S
Zr3158     O3166   2.378       .  S
O3159      H3175   0.990       .  S
O3160      H3174   0.989       .  S
O3160      H3184   0.990       .  S
Zr3161     O3164   2.260       .  S
Zr3161     O3166   2.422       .  S
Zr3161     O3167   2.390       .  S
Zr3162     O3163   2.379       .  S
Zr3162     O3165   2.380       .  S
Zr3162     O3168   2.410       .  S
O3163      H3171   0.959       .  S
O3166      H3170   0.965       .  S
O3167      H3172   0.966   1_556  S
O3185     Zr3197   2.541       .  S
O3185      C3187   1.308       .  A
O3186     Zr4447   2.362   1_545  S
O3186      C3187   1.273       .  A
C3187      C3507   1.487       .  S
O3188     Zr3200   2.407       .  S
O3188      C3190   1.278       .  A
O3189     Zr3224   2.524       .  S
O3189      C3190   1.306       .  A
C3190      C3527   1.497       .  S
O3191     Zr3200   2.375       .  S
O3191      C3193   1.273       .  A
O3192     Zr4447   2.464   1_545  S
O3192      C3193   1.293       .  A
C3193      C3627   1.476       .  S
O3194     Zr3197   2.527       .  S
O3194      C3196   1.294       .  A
O3195     Zr3224   2.380       .  S
O3195      C3196   1.259       .  A
C3196      C3497   1.497       .  S
Zr3197     O3198   2.434       .  S
Zr3197     O3199   2.431       .  S
Zr3197     O3203   2.281       .  S
Zr3197     O3204   2.384       .  S
Zr3197     O3227   2.381       .  S
Zr3197     O4453   2.355   1_545  S
O3198      H3241   0.990       .  S
O3199      H3240   0.990       .  S
O3199      H3244   0.990       .  S
Zr3200     O3201   2.443       .  S
Zr3200     O3202   2.425       .  S
Zr3200     O3203   2.280       .  S
Zr3200     O3204   2.372       .  S
Zr3200     O3228   2.390   1_545  S
Zr3200     O3230   2.365   1_545  S
O3201      H3242   0.991       .  S
O3201      H3245   0.990       .  S
O3202      H3235   0.990       .  S
O3203     Zr4447   2.251   1_545  S
O3204     Zr3224   2.398       .  S
O3204      H3231   0.961       .  S
O3205     Zr3217   2.582       .  S
O3205      C3207   1.318       .  A
O3206     Zr4448   2.355       .  S
O3206      C3207   1.273       .  A
C3207      C3477   1.510       .  S
O3208     Zr3220   2.384       .  S
O3208      C3210   1.269       .  A
O3209     Zr3223   2.480       .  S
O3209      C3210   1.288       .  A
C3210      C3617   1.504       .  S
O3211     Zr3220   2.404       .  S
O3211      C3213   1.277       .  A
O3212     Zr4448   2.489       .  S
O3212      C3213   1.297       .  A
C3213      C3517   1.487       .  S
O3214     Zr3217   2.597       .  S
O3214      C3216   1.319       .  A
O3215     Zr3223   2.318       .  S
O3215      C3216   1.267       .  A
C3216      C3487   1.524       .  S
Zr3217     O3218   2.435       .  S
Zr3217     O3219   2.435       .  S
Zr3217     O3226   2.289       .  S
Zr3217     O3225   2.375       .  S
Zr3217     O3229   2.362       .  S
Zr3217     O4451   2.377       .  S
O3218      H3238   0.990       .  S
O3218      H3243   0.989       .  S
O3219      H3239   0.990       .  S
Zr3220     O3221   2.433       .  S
Zr3220     O3222   2.417       .  S
Zr3220     O3226   2.280       .  S
Zr3220     O3225   2.355       .  S
Zr3220     O4454   2.381       .  S
Zr3220     O4452   2.398       .  S
O3221      H3237   0.989       .  S
O3222      H3236   0.990       .  S
O3222      H3246   0.990       .  S
Zr3223     O4410   2.340       .  S
Zr3223     O4416   2.480       .  S
Zr3223     O4427   2.242       .  S
Zr3223     O3226   2.247       .  S
Zr3223     O4452   2.378       .  S
Zr3223     O3229   2.419       .  S
Zr3224     O4430   2.321   1_545  S
Zr3224     O4436   2.495   1_545  S
Zr3224     O4449   2.388   1_545  S
Zr3224     O3227   2.420       .  S
Zr3224     O3230   2.375   1_545  S
O3225     Zr4448   2.373       .  S
O3225      H3233   0.959       .  S
O3227     Zr4441   2.369   1_545  S
O3228     Zr4444   2.389       .  S
O3228     Zr4447   2.385       .  S
O3228      H3232   0.966       .  S
O3229     Zr4421   2.378       .  S
O3229      H3234   0.965       .  S
O3230     Zr4444   2.376       .  S
O3247     Zr3259   2.365       .  S
O3247      C3249   1.273       .  A
O3248     Zr4509   2.508   1_545  S
O3248      C3249   1.303       .  A
C3249      C3604   1.484       .  S
O3250     Zr3262   2.557       .  S
O3250      C3252   1.311       .  A
O3251     Zr4510   2.317   1_545  S
O3251      C3252   1.268       .  A
C3252      C3454   1.481       .  S
O3253     Zr3262   2.557       .  S
O3253      C3255   1.313       .  A
O3254     Zr4509   2.406   1_545  S
O3254      C3255   1.282       .  A
C3255      C3467   1.526       .  S
O3256     Zr3259   2.408       .  S
O3256      C3258   1.273       .  A
O3257     Zr4510   2.478   1_545  S
O3257      C3258   1.287       .  A
C3258      C3547   1.491       .  S
Zr3259     O3260   2.434       .  S
Zr3259     O3261   2.423       .  S
Zr3259     O3265   2.378       .  S
Zr3259     O3266   2.365       .  S
Zr3259     O4513   2.362   1_545  S
Zr3259     O4515   2.382   1_545  S
O3260      H3303   0.990       .  S
O3261      H3302   0.987       .  S
O3261      H3306   0.990       .  S
Zr3262     O3263   2.434       .  S
Zr3262     O3264   2.430       .  S
Zr3262     O3266   2.379       .  S
Zr3262     O3265   2.375       .  S
Zr3262     O4514   2.380   1_545  S
Zr3262     O4516   2.368   1_545  S
O3263      H3304   0.990       .  S
O3263      H3307   0.990       .  S
O3264      H3297   0.990       .  S
O3265     Zr4509   2.363   1_545  S
O3266     Zr4510   2.382   1_545  S
O3266      H3293   0.964       .  S
O3267     Zr3279   2.396       .  S
O3267      C3269   1.275       .  A
O3268     Zr3286   2.500       .  S
O3268      C3269   1.300       .  A
C3269      C3534   1.504       .  S
O3270     Zr3282   2.556       .  S
O3270      C3272   1.306       .  A
O3271     Zr3285   2.352       .  S
O3271      C3272   1.262       .  A
C3272      C3447   1.504       .  S
O3273     Zr3282   2.594       .  S
O3273      C3275   1.319       .  A
O3274     Zr3286   2.305       .  S
O3274      C3275   1.264       .  A
C3275      C3434   1.518       .  S
O3276     Zr3279   2.389       .  S
O3276      C3278   1.274       .  A
O3277     Zr3285   2.493       .  S
O3277      C3278   1.295       .  A
C3278      C3597   1.487       .  S
Zr3279     O3280   2.439       .  S
Zr3279     O3281   2.425       .  S
Zr3279     O3288   2.271       .  S
Zr3279     O3287   2.376       .  S
Zr3279     O3291   2.385       .  S
Zr3279     O3289   2.375       .  S
O3280      H3300   0.990       .  S
O3280      H3305   0.987       .  S
O3281      H3301   0.990       .  S
Zr3282     O3283   2.435       .  S
Zr3282     O3284   2.436       .  S
Zr3282     O3288   2.297       .  S
Zr3282     O3287   2.352       .  S
Zr3282     O3292   2.357       .  S
Zr3282     O3290   2.370       .  S
O3283      H3299   0.990       .  S
O3284      H3298   0.990       .  S
O3284      H3308   0.990       .  S
Zr3285     O4472   2.490       .  S
Zr3285     O4478   2.342       .  S
Zr3285     O3288   2.255       .  S
Zr3285     O4489   2.360       .  S
Zr3285     O3290   2.428       .  S
Zr3285     O3291   2.375       .  S
Zr3286     O4475   2.346       .  S
Zr3286     O4481   2.486       .  S
Zr3286     O4490   2.377       .  S
Zr3286     O3287   2.388       .  S
Zr3286     O3289   2.354       .  S
Zr3286     O3292   2.410       .  S
O3287      H3295   0.962       .  S
O3289     Zr4483   2.380       .  S
O3290     Zr4486   2.358       .  S
O3290      H3294   0.965       .  S
O3291     Zr4483   2.394       .  S
O3291      H3296   0.966       .  S
O3292     Zr4486   2.376       .  S
O3309      C3311   1.306       .  A
O3310     Zr3347   2.349       .  S
O3310      C3311   1.272       .  A
C3311      C3504   1.481       .  S
O3312     Zr3324   2.410       .  S
O3312      C3314   1.273       .  A
O3313     Zr3348   2.461       .  S
O3313      C3314   1.282       .  A
C3314      C3587   1.489       .  S
O3315      C3317   1.275       .  A
O3316     Zr3347   2.441       .  S
O3316      C3317   1.280       .  A
C3317      C3664   1.491       .  S
O3318     Zr3321   2.549       .  S
O3318      C3320   1.309       .  A
O3319     Zr3348   2.342       .  S
O3319      C3320   1.271       .  A
C3320      C3494   1.487       .  S
Zr3321     O3322   2.433       .  S
Zr3321     O3323   2.436       .  S
Zr3321     O3328   2.369       .  S
Zr3321     O3351   2.358       .  S
O3323      H3368   0.990       .  S
Zr3324     O3325   2.438       .  S
Zr3324     O3326   2.436       .  S
Zr3324     O3328   2.370       .  S
Zr3324     O3354   2.399       .  S
O3325      H3366   0.990   1_655  S
O3325      H3369   0.987       .  S
O3326      H3359   0.991       .  S
O3327     Zr3347   2.377       .  S
O3328     Zr3348   2.381       .  S
O3328      H3355   0.961       .  S
O3329     Zr3341   2.570       .  S
O3329      C3331   1.314       .  A
O3330     Zr3348   2.306       .  S
O3330      C3331   1.264       .  A
C3331      C3457   1.496       .  S
O3332      C3334   1.280       .  A
O3333     Zr3347   2.437       .  S
O3333      C3334   1.287       .  A
C3334      C3654   1.464       .  S
O3335     Zr3344   2.436       .  S
O3335      C3337   1.284       .  A
O3336     Zr3348   2.466       .  S
O3336      C3337   1.292       .  A
C3337      C3574   1.485       .  S
O3338      C3340   1.316       .  A
O3339     Zr3347   2.363       .  S
O3339      C3340   1.273       .  A
C3340      C3464   1.533       .  S
Zr3341     O3342   2.436       .  S
Zr3341     O3343   2.436       .  S
Zr3341     O3349   2.385       .  S
Zr3341     O3351   2.383       .  S
O3342      H3362   0.990       .  S
O3342      H3367   0.990       .  S
O3343      H3363   0.990   1_655  S
Zr3344     O3345   2.437       .  S
Zr3344     O3346   2.435   1_655  S
Zr3344     O3349   2.371       .  S
Zr3344     O3354   2.374       .  S
O3345      H3361   0.991       .  S
O3346      H3360   0.990   1_455  S
O3346      H3370   0.990   1_455  S
Zr3347     O3350   2.254       .  S
Zr3347     O3352   2.383       .  S
Zr3347     O3353   2.404       .  S
Zr3348     O3349   2.389       .  S
Zr3348     O3351   2.416       .  S
Zr3348     O3354   2.365       .  S
O3349      H3357   0.963       .  S
O3352      H3356   0.966       .  S
O3353      H3358   0.965       .  S
O3371      C3373   1.267       .  A
O3372     Zr3409   2.461       .  S
O3372      C3373   1.285       .  A
C3373      C3644   1.489       .  S
O3374     Zr3386   2.616       .  S
O3374      C3376   1.324       .  A
O3375     Zr3410   2.319       .  S
O3375      C3376   1.270       .  A
C3376      C3474   1.508       .  S
O3377      C3379   1.307       .  A
O3378     Zr3409   2.383       .  S
O3378      C3379   1.277       .  A
C3379      C3484   1.514       .  S
O3380     Zr3383   2.409       .  S
O3380      C3382   1.281       .  A
O3381     Zr3410   2.471       .  S
O3381      C3382   1.294       .  A
C3382      C3567   1.474       .  S
Zr3383     O3384   2.437       .  S
Zr3383     O3385   2.435       .  S
Zr3383     O3390   2.357       .  S
Zr3383     O3413   2.377       .  S
O3385      H3426   0.991       .  S
O3385      H3430   0.990       .  S
Zr3386     O3387   2.435       .  S
Zr3386     O3388   2.425       .  S
Zr3386     O3390   2.331       .  S
Zr3386     O3416   2.366       .  S
O3387      H3428   0.990       .  S
O3387      H3431   0.990       .  S
O3389     Zr3409   2.261       .  S
O3390     Zr3410   2.364       .  S
O3390      H3417   0.953       .  S
O3391     Zr3403   2.426       .  S
O3391      C3393   1.274       .  A
O3392     Zr3410   2.457       .  S
O3392      C3393   1.282       .  A
C3393      C3554   1.489       .  S
O3394      C3396   1.306       .  A
O3395     Zr3409   2.363       .  S
O3395      C3396   1.274       .  A
C3396      C3444   1.498       .  S
O3397     Zr3406   2.541       .  S
O3397      C3399   1.301       .  A
O3398     Zr3410   2.366       .  S
O3398      C3399   1.261       .  A
C3399      C3437   1.508       .  S
O3400      C3402   1.279       .  A
O3401     Zr3409   2.440       .  S
O3401      C3402   1.288       .  A
C3402      C3634   1.462       .  S
Zr3403     O3404   2.436       .  S
Zr3403     O3405   2.436       .  S
Zr3403     O3411   2.368       .  S
Zr3403     O3413   2.380       .  S
O3404      H3424   0.990       .  S
O3404      H3429   0.990       .  S
O3405      H3425   0.989       .  S
Zr3406     O3407   2.434       .  S
Zr3406     O3408   2.430       .  S
Zr3406     O3411   2.390       .  S
Zr3406     O3416   2.387       .  S
O3407      H3423   0.990       .  S
O3408      H3422   0.990       .  S
O3408      H3432   0.990       .  S
Zr3409     O3412   2.253       .  S
Zr3409     O3414   2.409       .  S
Zr3409     O3415   2.391       .  S
Zr3410     O3411   2.396       .  S
Zr3410     O3413   2.385       .  S
Zr3410     O3416   2.411       .  S
O3411      H3419   0.960       .  S
O3414      H3418   0.966       .  S
O3415      H3420   0.966       .  S
C3433      C3434   1.399       .  A
C3433      C3438   1.412       .  A
C3433      F3440   1.357       .  S
C3434      C3435   1.438       .  A
C3435      C3436   1.401       .  A
C3435      F3442   1.359       .  S
C3436      C3437   1.394       .  A
C3436      F3441   1.358       .  S
C3437      C3438   1.428       .  A
C3438      F3439   1.356       .  S
C3443      C3444   1.425       .  A
C3443      C3448   1.409       .  A
C3443      F3450   1.358       .  S
C3444      C3445   1.396       .  A
C3445      C3446   1.399       .  A
C3445      F3452   1.358       .  S
C3446      C3447   1.428       .  A
C3446      F3451   1.359       .  S
C3447      C3448   1.399       .  A
C3448      F3449   1.357       .  S
C3453      C3454   1.423       .  A
C3453      C3458   1.409       .  A
C3453      F3460   1.357   1_545  S
C3454      C3455   1.390       .  A
C3455      C3456   1.397       .  A
C3455      F3462   1.358       .  S
C3456      C3457   1.428       .  A
C3456      F3461   1.359       .  S
C3457      C3458   1.400       .  A
C3458      F3459   1.358       .  S
C3463      C3464   1.433       .  A
C3463      C3468   1.411       .  A
C3463      F3470   1.358       .  S
C3464      C3465   1.406       .  A
C3465      C3466   1.419       .  A
C3465      F3472   1.357       .  S
C3466      C3467   1.428       .  A
C3466      F3471   1.357       .  S
C3467      C3468   1.402       .  A
C3468      F3469   1.358       .  S
C3473      C3474   1.403       .  A
C3473      C3478   1.414       .  A
C3473      F3480   1.354       .  S
C3474      C3475   1.424       .  A
C3475      C3476   1.415       .  A
C3475      F3482   1.357       .  S
C3476      C3477   1.404       .  A
C3476      F3481   1.357       .  S
C3477      C3478   1.422       .  A
C3478      F3479   1.358       .  S
C3483      C3484   1.428       .  A
C3483      C3488   1.418       .  A
C3483      F3490   1.357       .  S
C3484      C3485   1.398       .  A
C3485      C3486   1.400       .  A
C3485      F3492   1.359       .  S
C3486      C3487   1.435       .  A
C3486      F3491   1.359       .  S
C3487      C3488   1.404       .  A
C3488      F3489   1.357       .  S
C3493      C3494   1.415       .  A
C3493      C3498   1.407       .  A
C3493      F3500   1.357       .  S
C3494      C3495   1.403       .  A
C3495      C3496   1.407       .  A
C3495      F3502   1.358       .  S
C3496      C3497   1.419       .  A
C3496      F3501   1.358       .  S
C3497      C3498   1.402       .  A
C3498      F3499   1.356       .  S
C3503      C3504   1.401       .  A
C3503      C3508   1.408       .  A
C3503      F3510   1.357       .  S
C3504      C3505   1.413       .  A
C3505      C3506   1.404       .  A
C3505      F3512   1.358       .  S
C3506      C3507   1.403       .  A
C3506      F3511   1.357       .  S
C3507      C3508   1.413       .  A
C3508      F3509   1.351       .  S
C3513      C3514   1.429       .  A
C3513      C3518   1.406       .  A
C3513      F3520   1.357       .  S
C3514      C3515   1.404       .  A
C3515      C3516   1.409       .  A
C3515      F3522   1.357       .  S
C3516      C3517   1.415       .  A
C3516      F3521   1.354       .  S
C3517      C3518   1.397       .  A
C3518      F3519   1.358       .  S
C3523      C3524   1.431       .  A
C3523      C3528   1.409       .  A
C3524      C3525   1.405       .  A
C3525      C3526   1.411       .  A
C3525      F3532   1.357       .  S
C3526      C3527   1.420       .  A
C3526      F3531   1.358       .  S
C3527      C3528   1.396       .  A
C3528      F3529   1.357       .  S
C3533      C3534   1.408       .  A
C3533      C3538   1.403       .  A
C3533      F3540   1.347       .  S
C3534      C3535   1.421       .  A
C3535      C3536   1.403       .  A
C3535      F3542   1.356       .  S
C3536      C3537   1.401       .  A
C3536      F3541   1.358       .  S
C3537      C3538   1.408       .  A
C3538      F3539   1.358       .  S
C3543      C3544   1.409       .  A
C3543      C3548   1.418       .  A
C3543      F3550   1.357       .  S
C3544      C3545   1.422       .  A
C3545      C3546   1.392       .  A
C3545      F3552   1.359       .  S
C3546      C3547   1.398       .  A
C3546      F3551   1.359       .  S
C3547      C3548   1.415       .  A
C3548      F3549   1.353       .  S
C3553      C3554   1.397       .  A
C3553      C3558   1.391       .  A
C3553      F3560   1.358       .  S
C3554      C3555   1.417       .  A
C3555      C3556   1.409       .  A
C3555      F3562   1.346       .  S
C3556      C3557   1.401       .  A
C3556      F3561   1.357       .  S
C3557      C3558   1.416       .  A
C3558      F3559   1.355       .  S
C3563      C3564   1.395       .  A
C3563      C3568   1.397       .  A
C3563      F3570   1.358       .  S
C3564      C3565   1.420       .  A
C3565      C3566   1.399       .  A
C3565      F3572   1.343       .  S
C3566      C3567   1.389       .  A
C3566      F3571   1.358       .  S
C3567      C3568   1.417       .  A
C3568      F3569   1.354       .  S
C3573      C3574   1.415       .  A
C3573      C3578   1.412       .  A
C3573      F3580   1.357       .  S
C3574      C3575   1.400       .  A
C3575      C3576   1.402       .  A
C3575      F3582   1.358       .  S
C3576      C3577   1.410       .  A
C3576      F3581   1.355       .  S
C3577      C3578   1.403       .  A
C3578      F3579   1.357       .  S
C3583      C3584   1.408       .  A
C3583      C3588   1.412       .  A
C3583      F3590   1.356       .  S
C3584      C3585   1.422       .  A
C3585      C3586   1.395       .  A
C3585      F3592   1.357       .  S
C3586      C3587   1.396       .  A
C3586      F3591   1.358       .  S
C3587      C3588   1.415       .  A
C3588      F3589   1.355       .  S
C3593      C3594   1.428       .  A
C3593      C3598   1.407       .  A
C3593      F3600   1.358       .  S
C3594      C3595   1.407       .  A
C3595      C3596   1.408       .  A
C3595      F3602   1.357       .  S
C3596      C3597   1.412       .  A
C3596      F3601   1.358       .  S
C3597      C3598   1.398       .  A
C3598      F3599   1.358       .  S
C3603      C3604   1.412       .  A
C3603      C3608   1.401       .  A
C3603      F3610   1.358       .  S
C3604      C3605   1.406       .  A
C3605      C3606   1.408       .  A
C3605      F3612   1.357       .  S
C3606      C3607   1.407       .  A
C3606      F3611   1.350       .  S
C3607      C3608   1.409       .  A
C3608      F3609   1.359       .  S
C3613      C3614   1.403       .  A
C3613      C3618   1.399       .  A
C3613      F3620   1.359       .  S
C3614      C3615   1.406       .  A
C3615      C3616   1.407       .  A
C3615      F3622   1.356       .  S
C3616      C3617   1.411       .  A
C3616      F3621   1.352       .  S
C3617      C3618   1.417       .  A
C3618      F3619   1.356       .  S
C3623      C3624   1.398       .  A
C3623      C3628   1.401       .  A
C3623      F3630   1.356       .  S
C3624      C3625   1.434       .  A
C3625      C3626   1.397       .  A
C3625      F3632   1.359       .  S
C3626      C3627   1.392       .  A
C3626      F3631   1.359       .  S
C3627      C3628   1.417       .  A
C3628      F3629   1.358       .  S
C3633      C3634   1.412       .  A
C3633      C3638   1.401       .  A
C3633      F3640   1.356       .  S
C3634      C3635   1.392       .  A
C3635      C3636   1.392       .  A
C3635      F3642   1.359       .  S
C3636      C3637   1.420       .  A
C3636      F3641   1.359       .  S
C3637      C3638   1.400       .  A
C3638      F3639   1.357       .  S
C3643      C3644   1.409       .  A
C3643      C3648   1.406       .  A
C3643      F3650   1.358       .  S
C3644      C3645   1.415       .  A
C3645      C3646   1.389       .  A
C3645      F3652   1.358       .  S
C3646      C3647   1.396       .  A
C3646      F3651   1.355       .  S
C3647      C3648   1.410       .  A
C3648      F3649   1.353       .  S
C3653      C3654   1.395       .  A
C3653      C3658   1.392       .  A
C3653      F3660   1.358       .  S
C3654      C3655   1.413       .  A
C3655      C3656   1.400       .  A
C3655      F3662   1.357       .  S
C3656      C3657   1.398       .  A
C3656      F3661   1.357       .  S
C3657      C3658   1.412       .  A
C3658      F3659   1.359       .  S
C3663      C3664   1.413       .  A
C3663      C3668   1.412       .  A
C3663      F3670   1.356       .  S
C3664      C3665   1.403       .  A
C3665      C3666   1.385       .  A
C3665      F3672   1.357       .  S
C3666      C3667   1.405       .  A
C3666      F3671   1.351       .  S
C3667      C3668   1.413       .  A
C3668      F3669   1.357       .  S
O3673     Zr3685   2.511       .  S
O3673      C3675   1.301       .  A
O3674     Zr4323   2.337   1_554  S
O3674      C3675   1.270       .  A
C3675      C4236   1.488       .  S
O3676     Zr3688   2.435       .  S
O3676      C3678   1.277       .  A
O3677     Zr3712   2.460   1_554  S
O3677      C3678   1.282       .  A
C3678      C4259   1.501       .  S
O3679     Zr3688   2.412       .  S
O3679      C3681   1.278       .  A
O3680     Zr4323   2.462   1_554  S
O3680      C3681   1.287       .  A
C3681      C4279   1.501       .  S
O3682     Zr3685   2.504       .  S
O3682      C3684   1.299       .  A
O3683     Zr3712   2.340   1_554  S
O3683      C3684   1.275       .  A
C3684      C4226   1.460       .  S
Zr3685     O3686   2.437       .  S
Zr3685     O3687   2.434       .  S
Zr3685     O3691   2.364       .  S
Zr3685     O3692   2.374       .  S
Zr3685     O4327   2.382       .  S
Zr3685     O4329   2.390   1_554  S
O3686      H3729   0.990       .  S
O3687      H3728   0.990       .  S
O3687      H3732   0.990       .  S
Zr3688     O3689   2.444       .  S
Zr3688     O3690   2.434       .  S
Zr3688     O3692   2.373       .  S
Zr3688     O3691   2.365       .  S
Zr3688     O3716   2.396   1_554  S
Zr3688     O3718   2.390   1_554  S
O3689      H3730   0.989       .  S
O3689      H3733   0.988       .  S
O3690      H3723   0.990       .  S
O3691     Zr4323   2.351   1_554  S
O3692     Zr3712   2.382   1_554  S
O3692      H3719   0.964       .  S
O3693     Zr3705   2.500       .  S
O3693      C3695   1.290       .  A
O3694     Zr4324   2.383       .  S
O3694      C3695   1.262       .  A
C3695      C4206   1.495       .  S
O3696     Zr3708   2.388       .  S
O3696      C3698   1.278       .  A
O3697     Zr3711   2.446       .  S
O3697      C3698   1.288       .  A
C3698      C4269   1.474       .  S
O3699     Zr3708   2.453       .  S
O3699      C3701   1.288       .  A
O3700     Zr4324   2.431       .  S
O3700      C3701   1.285       .  A
C3701      C4249   1.468       .  S
O3702     Zr3705   2.521       .  S
O3702      C3704   1.303       .  A
O3703     Zr3711   2.361       .  S
O3703      C3704   1.275       .  A
C3704      C4219   1.500       .  S
Zr3705     O3706   2.437       .  S
Zr3705     O3707   2.434       .  S
Zr3705     O3714   2.280       .  S
Zr3705     O3713   2.383       .  S
Zr3705     O3717   2.371       .  S
Zr3705     O3715   2.389       .  S
O3706      H3726   0.990       .  S
O3706      H3731   0.990       .  S
O3707      H3727   0.990       .  S
Zr3708     O3709   2.434       .  S
Zr3708     O3710   2.435       .  S
Zr3708     O3714   2.284       .  S
Zr3708     O3713   2.365       .  S
Zr3708     O4330   2.337       .  S
Zr3708     O4328   2.387       .  S
O3709      H3725   0.990       .  S
O3710      H3724   0.990       .  S
O3710      H3734   0.989       .  S
Zr3711     O4286   2.376       .  S
Zr3711     O4292   2.432       .  S
Zr3711     O3714   2.241       .  S
Zr3711     O4303   2.343       .  S
Zr3711     O4328   2.380       .  S
Zr3711     O3717   2.403       .  S
Zr3712     O4306   2.374       .  S
Zr3712     O4312   2.445       .  S
Zr3712     O4325   2.398       .  S
Zr3712     O4327   2.408   1_556  S
Zr3712     O3718   2.379       .  S
O3713     Zr4324   2.396       .  S
O3713      H3721   0.957       .  S
O3715     Zr4297   2.363       .  S
O3715     Zr4324   2.404       .  S
O3716     Zr4320   2.386       .  S
O3716     Zr4323   2.370       .  S
O3716      H3720   0.966       .  S
O3717     Zr4297   2.399       .  S
O3717      H3722   0.966       .  S
O3718     Zr4320   2.364       .  S
O3735     Zr3747   2.410       .  S
O3735      C3737   1.281       .  A
O3736     Zr4385   2.440   1_554  S
O3736      C3737   1.288       .  A
C3737      C4196   1.475       .  S
O3738     Zr3750   2.528       .  S
O3738      C3740   1.305       .  A
O3739     Zr4386   2.374   1_554  S
O3739      C3740   1.277       .  A
C3740      C4126   1.499       .  S
O3741     Zr3750   2.564       .  S
O3741      C3743   1.312       .  A
O3742     Zr3773   2.341       .  S
O3742      C4355   1.269       .  A
C3743      O4354   1.272       .  A
C3743      C4136   1.487       .  S
O3744     Zr3747   2.417       .  S
O3744      C3746   1.271       .  A
O3745     Zr4386   2.452   1_554  S
O3745      C3746   1.281       .  A
C3746      C4176   1.495       .  S
Zr3747     O3748   2.428       .  S
Zr3747     O3749   2.438       .  S
Zr3747     O3753   2.352       .  S
Zr3747     O3754   2.388       .  S
Zr3747     O4389   2.380   1_554  S
Zr3747     O4391   2.359   1_554  S
O3748      H3791   0.988       .  S
O3749      H3790   0.990       .  S
O3749      H3794   0.990       .  S
Zr3750     O3751   2.437       .  S
Zr3750     O3752   2.434       .  S
Zr3750     O3754   2.388       .  S
Zr3750     O3753   2.369       .  S
Zr3750     O4390   2.362   1_554  S
Zr3750     O4392   2.386   1_554  S
O3751      H3792   0.988       .  S
O3751      H3795   0.990       .  S
O3752      H3785   0.990       .  S
O3753     Zr4385   2.360   1_554  S
O3754     Zr4386   2.401   1_554  S
O3754      H3781   0.965       .  S
O3755     Zr3767   2.415       .  S
O3755      C3757   1.281       .  A
O3756     Zr3774   2.481       .  S
O3756      C3757   1.297       .  A
C3757      C4169   1.489       .  S
O3758     Zr3770   2.545       .  S
O3758      C3760   1.304       .  A
O3759     Zr3773   2.351       .  S
O3759      C3760   1.260       .  A
C3760      C4156   1.504       .  S
O3761     Zr3770   2.554       .  S
O3761      C3763   1.310       .  A
O3762     Zr3774   2.327       .  S
O3762      C3763   1.268       .  A
C3763      C4149   1.501       .  S
O3764     Zr3767   2.389       .  S
O3764      C3766   1.276       .  A
O3765     Zr3773   2.473       .  S
O3765      C3766   1.292       .  A
C3766      C4189   1.474       .  S
Zr3767     O3768   2.441       .  S
Zr3767     O3769   2.437       .  S
Zr3767     O3776   2.272       .  S
Zr3767     O3775   2.384       .  S
Zr3767     O3779   2.385       .  S
Zr3767     O3777   2.368       .  S
O3768      H3788   0.991       .  S
O3768      H3793   0.990       .  S
O3769      H3789   0.991       .  S
Zr3770     O3771   2.435       .  S
Zr3770     O3772   2.441       .  S
Zr3770     O3776   2.291       .  S
Zr3770     O3775   2.352       .  S
Zr3770     O3780   2.380       .  S
Zr3770     O3778   2.368       .  S
O3771      H3787   0.990       .  S
O3772      H3786   0.989       .  S
O3772      H3796   0.990       .  S
Zr3773     O4348   2.443       .  S
Zr3773     O3776   2.245       .  S
Zr3773     O4365   2.347       .  S
Zr3773     O3778   2.422       .  S
Zr3773     O3779   2.375       .  S
Zr3774     O4351   2.354       .  S
Zr3774     O4357   2.474       .  S
Zr3774     O4366   2.393       .  S
Zr3774     O3775   2.383       .  S
Zr3774     O3777   2.378       .  S
Zr3774     O3780   2.411       .  S
O3775      H3783   0.961       .  S
O3777     Zr4359   2.391       .  S
O3778     Zr4362   2.372       .  S
O3778      H3782   0.964       .  S
O3779     Zr4359   2.385       .  S
O3779      H3784   0.966       .  S
O3780     Zr4362   2.383       .  S
O3797     Zr3809   2.578       .  S
O3797      C3799   1.316       .  A
O3798      C3799   1.267       .  A
C3799      C4119   1.492       .  S
O3800     Zr3812   2.397       .  S
O3800      C3802   1.274       .  A
O3801     Zr3836   2.512       .  S
O3801      C3802   1.301       .  A
C3802      C4139   1.508       .  S
O3803     Zr3812   2.390       .  S
O3803      C3805   1.267       .  A
O3804      C3805   1.289       .  A
C3805      C4239   1.469       .  S
O3806     Zr3809   2.563       .  S
O3806      C3808   1.312       .  A
O3807     Zr3836   2.341       .  S
O3807      C3808   1.270       .  A
C3808      C4109   1.514       .  S
Zr3809     O3810   2.437       .  S
Zr3809     O3811   2.431       .  S
Zr3809     O3815   2.265       .  S
Zr3809     O3816   2.385       .  S
Zr3809     O3839   2.371       .  S
O3810      H3853   0.990       .  S
O3811      H3852   0.989       .  S
O3811      H3856   0.990       .  S
Zr3812     O3813   2.444       .  S
Zr3812     O3814   2.445       .  S
Zr3812     O3815   2.260       .  S
Zr3812     O3816   2.375       .  S
Zr3812     O3840   2.383       .  S
Zr3812     O3842   2.391       .  S
O3813      H3854   0.989       .  S
O3813      H3857   0.990       .  S
O3814      H3847   0.989       .  S
O3816     Zr3836   2.388       .  S
O3816      H3843   0.964       .  S
O3817     Zr3829   2.596       .  S
O3817      C3819   1.320       .  A
O3818      C3819   1.272       .  A
C3819      C4089   1.528       .  S
O3820     Zr3832   2.382       .  S
O3820      C3822   1.267       .  A
O3821     Zr3835   2.461       .  S
O3821      C3822   1.285       .  A
C3822      C4229   1.492       .  S
O3823     Zr3832   2.400       .  S
O3823      C3825   1.277       .  A
O3824      C3825   1.295       .  A
C3825      C4129   1.484       .  S
O3826     Zr3829   2.621       .  S
O3826      C3828   1.325       .  A
O3827     Zr3835   2.323       .  S
O3827      C3828   1.268       .  A
C3828      C4099   1.516       .  S
Zr3829     O3830   2.434       .  S
Zr3829     O3831   2.436       .  S
Zr3829     O3838   2.289       .  S
Zr3829     O3837   2.379       .  S
Zr3829     O3841   2.366   1_565  S
O3830      H3850   0.990       .  S
O3830      H3855   0.990       .  S
O3831      H3851   0.990       .  S
Zr3832     O3833   2.431       .  S
Zr3832     O3834   2.421   1_554  S
Zr3832     O3838   2.287       .  S
Zr3832     O3837   2.364       .  S
O3833      H3849   0.990       .  S
O3834      H3848   0.990       .  S
O3834      H3858   0.989       .  S
Zr3835     O3838   2.245       .  S
Zr3835     O3841   2.414   1_565  S
Zr3836     O3839   2.422       .  S
Zr3836     O3842   2.382       .  S
O3837      H3845   0.961       .  S
O3840      H3844   0.965       .  S
O3841      H3846   0.964   1_545  S
O3859     Zr3871   2.412       .  S
O3859      C3861   1.279       .  A
O3860      C3861   1.292       .  A
C3861      C4216   1.487       .  S
O3862     Zr3874   2.590       .  S
O3862      C3864   1.319       .  A
O3863      C3864   1.273       .  A
C3864      C4066   1.507       .  S
O3865     Zr3874   2.559       .  S
O3865      C3867   1.311       .  A
O3866      C3867   1.274       .  A
C3867      C4079   1.497       .  S
O3868     Zr3871   2.394       .  S
O3868      C3870   1.277       .  A
O3869      C3870   1.300       .  A
C3870      C4159   1.480       .  S
Zr3871     O3872   2.441       .  S
Zr3871     O3873   2.422       .  S
Zr3871     O3877   2.373       .  S
Zr3871     O3878   2.382       .  S
O3872      H3915   0.989       .  S
O3873      H3914   0.988       .  S
O3873      H3918   0.990       .  S
Zr3874     O3875   2.435       .  S
Zr3874     O3876   2.432       .  S
Zr3874     O3878   2.356       .  S
Zr3874     O3877   2.397       .  S
O3875      H3916   0.990       .  S
O3875      H3919   0.990       .  S
O3876      H3909   0.990       .  S
O3878      H3905   0.960       .  S
O3879     Zr3891   2.403       .  S
O3879      C3881   1.277       .  A
O3880     Zr3898   2.477       .  S
O3880      C3881   1.294       .  A
C3881      C4146   1.483       .  S
O3882     Zr3894   2.566       .  S
O3882      C3884   1.314       .  A
O3883     Zr3897   2.322       .  S
O3883      C3884   1.269       .  A
C3884      C4059   1.497       .  S
O3885     Zr3894   2.522       .  S
O3885      C3887   1.304       .  A
O3886     Zr3898   2.337       .  S
O3886      C3887   1.270       .  A
C3887      C4046   1.465       .  S
O3888     Zr3891   2.383       .  S
O3888      C3890   1.274       .  A
O3889     Zr3897   2.504       .  S
O3889      C3890   1.299       .  A
C3890      C4209   1.470       .  S
Zr3891     O3892   2.445       .  S
Zr3891     O3893   2.430       .  S
Zr3891     O3899   2.372       .  S
Zr3891     O3900   2.347       .  S
Zr3891     O3903   2.385       .  S
Zr3891     O3901   2.375       .  S
O3892      H3912   0.988       .  S
O3892      H3917   0.990       .  S
O3893      H3913   0.991       .  S
Zr3894     O3895   2.435       .  S
Zr3894     O3896   2.436       .  S
Zr3894     O3900   2.341       .  S
Zr3894     O3899   2.378       .  S
Zr3894     O3904   2.380       .  S
Zr3894     O3902   2.356       .  S
O3895      H3911   0.990       .  S
O3896      H3910   0.990       .  S
O3896      H3920   0.990       .  S
Zr3897     O3900   2.345       .  S
Zr3897     O3902   2.415       .  S
Zr3897     O3903   2.371       .  S
Zr3898     O3899   2.376       .  S
Zr3898     O3901   2.374       .  S
Zr3898     O3904   2.410       .  S
O3899      H3907   0.962       .  S
O3902      H3906   0.965       .  S
O3903      H3908   0.964       .  S
O3921      C3923   1.303       .  A
O3922     Zr3959   2.356       .  S
O3922      C3923   1.260       .  A
C3923      C4116   1.514       .  S
O3924     Zr3936   2.435       .  S
O3924      C3926   1.281       .  A
O3925     Zr3960   2.448       .  S
O3925      C3926   1.285       .  A
C3926      C4199   1.477       .  S
O3927      C3929   1.279       .  A
O3928     Zr3959   2.465       .  S
O3928      C3929   1.294       .  A
C3929      C4276   1.475       .  S
O3930     Zr3933   2.523       .  S
O3930      C3932   1.297       .  A
O3931     Zr3960   2.369       .  S
O3931      C3932   1.260       .  A
C3932      C4106   1.502       .  S
Zr3933     O3934   2.433       .  S
Zr3933     O3935   2.431       .  S
Zr3933     O3940   2.383       .  S
Zr3933     O3963   2.384       .  S
O3935      H3980   0.990       .  S
Zr3936     O3937   2.439       .  S
Zr3936     O3938   2.436       .  S
Zr3936     O3940   2.360       .  S
Zr3936     O3966   2.373       .  S
O3937      H3978   0.989       .  S
O3937      H3981   0.990       .  S
O3938      H3971   0.990       .  S
O3939     Zr3959   2.254       .  S
O3940     Zr3960   2.400       .  S
O3940      H3967   0.960       .  S
O3941     Zr3953   2.588       .  S
O3941      C3943   1.318       .  A
O3942     Zr3960   2.343       .  S
O3942      C3943   1.274       .  A
C3943      C4069   1.502       .  S
O3944      C3946   1.280       .  A
O3945     Zr3959   2.429       .  S
O3945      C3946   1.282       .  A
C3946      C4266   1.463       .  S
O3947     Zr3956   2.438       .  S
O3947      C3949   1.287       .  A
O3948     Zr3960   2.457       .  S
O3948      C3949   1.291       .  A
C3949      C4186   1.475       .  S
O3950      C3952   1.311       .  A
O3951     Zr3959   2.392       .  S
O3951      C3952   1.282       .  A
C3952      C4076   1.493       .  S
Zr3953     O3954   2.435       .  S
Zr3953     O3955   2.427       .  S
Zr3953     O3961   2.343       .  S
Zr3953     O3963   2.372       .  S
O3954      H3974   0.990       .  S
O3954      H3979   0.990       .  S
O3955      H3975   0.990       .  S
Zr3956     O3957   2.438       .  S
Zr3956     O3958   2.440       .  S
Zr3956     O3961   2.372       .  S
Zr3956     O3966   2.369       .  S
O3957      H3973   0.990       .  S
O3958      H3972   0.990       .  S
O3958      H3982   0.990       .  S
Zr3959     O3962   2.360       .  S
Zr3959     O3964   2.367       .  S
Zr3959     O3965   2.420       .  S
Zr3960     O3961   2.357       .  S
Zr3960     O3963   2.409       .  S
Zr3960     O3966   2.380       .  S
O3961      H3969   0.956       .  S
O3964      H3968   0.966       .  S
O3965      H3970   0.963       .  S
O3983      C3985   1.269       .  A
O3984     Zr4021   2.456       .  S
O3984      C3985   1.279       .  A
C3985      C4256   1.494       .  S
O3986     Zr3998   2.566       .  S
O3986      C3988   1.314       .  A
O3987     Zr4022   2.373       .  S
O3987      C3988   1.275       .  A
C3988      C4086   1.524       .  S
O3989      C3991   1.318       .  A
O3990     Zr4021   2.325       .  S
O3990      C3991   1.268       .  A
C3991      C4096   1.507       .  S
O3992     Zr3995   2.411       .  S
O3992      C3994   1.273       .  A
O3993     Zr4022   2.438       .  S
O3993      C3994   1.273       .  A
C3994      C4179   1.491       .  S
Zr3995     O3996   2.440       .  S
Zr3995     O3997   2.446       .  S
Zr3995     O4002   2.392       .  S
Zr3995     O4025   2.402       .  S
O3997      H4038   0.990   1_655  S
O3997      H4042   0.988       .  S
Zr3998     O3999   2.437       .  S
Zr3998     O4000   2.426       .  S
Zr3998     O4002   2.373       .  S
Zr3998     O4028   2.387       .  S
O3999      H4040   0.989       .  S
O3999      H4043   0.990       .  S
O4001     Zr4021   2.258       .  S
O4002     Zr4022   2.407       .  S
O4002      H4029   0.964       .  S
O4003     Zr4015   2.383       .  S
O4003      C4005   1.273       .  A
O4004     Zr4022   2.482       .  S
O4004      C4005   1.294       .  A
C4005      C4166   1.473       .  S
O4006      C4008   1.304       .  A
O4007     Zr4021   2.353       .  S
O4007      C4008   1.250       .  A
C4008      C4056   1.513       .  S
O4009     Zr4018   2.537       .  S
O4009      C4011   1.305       .  A
O4010     Zr4022   2.326       .  S
O4010      C4011   1.268       .  A
C4011      C4049   1.470       .  S
O4012      C4014   1.274       .  A
O4013     Zr4021   2.471       .  S
O4013      C4014   1.291       .  A
C4014      C4246   1.469       .  S
Zr4015     O4016   2.444       .  S
Zr4015     O4017   2.440   1_655  S
Zr4015     O4023   2.384       .  S
Zr4015     O4025   2.361       .  S
O4016      H4036   0.990   1_655  S
O4016      H4041   0.991       .  S
O4017      H4037   0.990       .  S
Zr4018     O4019   2.437       .  S
Zr4018     O4020   2.436       .  S
Zr4018     O4023   2.374       .  S
Zr4018     O4028   2.377       .  S
O4019      H4035   0.990       .  S
O4020      H4034   0.990   1_655  S
O4020      H4044   0.990       .  S
Zr4021     O4024   2.362       .  S
Zr4021     O4026   2.434       .  S
Zr4021     O4027   2.393       .  S
Zr4022     O4023   2.382       .  S
Zr4022     O4025   2.386       .  S
Zr4022     O4028   2.411       .  S
O4023      H4031   0.961       .  S
O4026      H4030   0.967       .  S
O4027      H4032   0.967       .  S
C4045      C4046   1.403       .  A
C4045      C4050   1.399       .  A
C4045      F4052   1.358       .  S
C4046      C4047   1.410       .  A
C4047      C4048   1.405       .  A
C4047      F4054   1.358       .  S
C4048      C4049   1.407       .  A
C4048      F4053   1.358       .  S
C4049      C4050   1.407       .  A
C4050      F4051   1.354       .  S
C4055      C4056   1.434       .  A
C4055      C4060   1.402       .  A
C4055      F4062   1.354       .  S
C4056      C4057   1.397       .  A
C4057      C4058   1.407       .  A
C4057      F4064   1.356       .  S
C4058      C4059   1.427       .  A
C4058      F4063   1.357       .  S
C4059      C4060   1.391       .  A
C4060      F4061   1.358       .  S
C4065      C4066   1.421       .  A
C4065      C4070   1.412       .  A
C4065      F4072   1.358       .  S
C4066      C4067   1.405       .  A
C4067      C4068   1.414       .  A
C4067      F4074   1.357       .  S
C4068      C4069   1.418       .  A
C4068      F4073   1.357       .  S
C4069      C4070   1.404       .  A
C4070      F4071   1.354       .  S
C4075      C4076   1.415       .  A
C4075      C4080   1.414       .  A
C4075      F4082   1.357       .  S
C4076      C4077   1.402       .  A
C4077      C4078   1.406       .  A
C4077      F4084   1.358       .  S
C4078      C4079   1.417       .  A
C4078      F4083   1.358       .  S
C4079      C4080   1.407       .  A
C4080      F4081   1.356       .  S
C4085      C4086   1.399       .  A
C4085      C4090   1.409       .  A
C4085      F4092   1.358       .  S
C4086      C4087   1.432       .  A
C4087      C4088   1.417       .  A
C4087      F4094   1.357       .  S
C4088      C4089   1.403       .  A
C4088      F4093   1.357       .  S
C4089      C4090   1.435       .  A
C4090      F4091   1.358       .  S
C4095      C4096   1.426       .  A
C4095      C4100   1.415       .  A
C4095      F4102   1.358       .  S
C4096      C4097   1.396       .  A
C4097      C4098   1.411       .  A
C4097      F4104   1.357       .  S
C4098      C4099   1.431       .  A
C4098      F4103   1.357       .  S
C4099      C4100   1.404       .  A
C4100      F4101   1.358       .  S
C4105      C4106   1.426       .  A
C4105      C4110   1.410       .  A
C4105      F4112   1.357       .  S
C4106      C4107   1.394       .  A
C4107      C4108   1.400       .  A
C4107      F4114   1.358       .  S
C4108      C4109   1.433       .  A
C4108      F4113   1.358       .  S
C4109      C4110   1.402       .  A
C4110      F4111   1.357       .  S
C4115      C4116   1.429       .  A
C4115      C4120   1.404       .  A
C4115      F4122   1.357       .  S
C4116      C4117   1.405       .  A
C4117      C4118   1.412       .  A
C4117      F4124   1.358       .  S
C4118      C4119   1.424       .  A
C4118      F4123   1.359       .  S
C4119      C4120   1.393       .  A
C4120      F4121   1.356       .  S
C4125      C4126   1.419       .  A
C4125      C4130   1.403       .  A
C4125      F4132   1.357   1_554  S
C4126      C4127   1.404       .  A
C4127      C4128   1.409       .  A
C4127      F4134   1.357       .  S
C4128      C4129   1.415       .  A
C4128      F4133   1.356       .  S
C4129      C4130   1.400       .  A
C4130      F4131   1.358       .  S
C4135      C4136   1.411       .  A
C4135      C4140   1.411       .  A
C4135      F4754   1.350       .  S
C4136      C4137   1.405       .  A
C4137      C4138   1.408       .  A
C4137      F4144   1.358       .  S
C4138      C4139   1.419       .  A
C4138      F4143   1.358       .  S
C4139      C4140   1.409       .  A
C4140      F4141   1.357       .  S
F4142      C4747   1.356       .  S
C4145      C4146   1.391       .  A
C4145      C4150   1.402       .  A
C4145      F4152   1.358       .  S
C4146      C4147   1.418       .  A
C4147      C4148   1.402       .  A
C4147      F4154   1.358       .  S
C4148      C4149   1.399       .  A
C4148      F4153   1.357       .  S
C4149      C4150   1.432       .  A
C4150      F4151   1.359       .  S
C4155      C4156   1.401       .  A
C4155      C4160   1.409       .  A
C4155      F4162   1.357       .  S
C4156      C4157   1.430       .  A
C4157      C4158   1.398       .  A
C4157      F4164   1.358       .  S
C4158      C4159   1.388       .  A
C4158      F4163   1.357       .  S
C4159      C4160   1.420       .  A
C4160      F4161   1.357       .  S
C4165      C4166   1.396       .  A
C4165      C4170   1.402       .  A
C4165      F4172   1.358       .  S
C4166      C4167   1.418       .  A
C4167      C4168   1.401       .  A
C4167      F4174   1.357       .  S
C4168      C4169   1.395       .  A
C4168      F4173   1.357       .  S
C4169      C4170   1.422       .  A
C4170      F4171   1.359       .  S
C4175      C4176   1.409       .  A
C4175      C4180   1.394       .  A
C4175      F4182   1.357       .  S
C4176      C4177   1.411       .  A
C4177      C4178   1.411       .  A
C4177      F4184   1.358       .  S
C4178      C4179   1.415       .  A
C4178      F4183   1.357       .  S
C4179      C4180   1.400       .  A
C4180      F4181   1.357       .  S
C4185      C4186   1.393       .  A
C4185      C4190   1.400       .  A
C4185      F4192   1.357       .  S
C4186      C4187   1.413       .  A
C4187      C4188   1.398       .  A
C4187      F4194   1.355       .  S
C4188      C4189   1.397       .  A
C4188      F4193   1.358       .  S
C4189      C4190   1.418       .  A
C4190      F4191   1.351       .  S
C4195      C4196   1.399       .  A
C4195      C4200   1.408       .  A
C4195      F4202   1.357       .  S
C4196      C4197   1.409       .  A
C4197      C4198   1.391       .  A
C4197      F4204   1.356       .  S
C4198      C4199   1.397       .  A
C4198      F4203   1.358       .  S
C4199      C4200   1.417       .  A
C4200      F4201   1.352       .  S
C4205      C4206   1.421       .  A
C4205      C4210   1.397       .  A
C4205      F4212   1.356       .  S
C4206      C4207   1.403       .  A
C4207      C4208   1.403       .  A
C4207      F4214   1.358       .  S
C4208      C4209   1.415       .  A
C4208      F4213   1.358       .  S
C4209      C4210   1.393       .  A
C4210      F4211   1.358       .  S
C4215      C4216   1.414       .  A
C4215      C4220   1.402       .  A
C4215      F4222   1.358       .  S
C4216      C4217   1.398       .  A
C4217      C4218   1.406       .  A
C4217      F4224   1.358       .  S
C4218      C4219   1.425       .  A
C4218      F4223   1.358       .  S
C4219      C4220   1.401       .  A
C4220      F4221   1.357       .  S
C4225      C4226   1.404       .  A
C4225      C4230   1.398       .  A
C4225      F4232   1.358       .  S
C4226      C4227   1.402       .  A
C4227      C4228   1.400       .  A
C4227      F4234   1.357       .  S
C4228      C4229   1.410       .  A
C4228      F4233   1.349       .  S
C4229      C4230   1.414       .  A
C4230      F4231   1.358       .  S
C4235      C4236   1.401       .  A
C4235      C4240   1.400       .  A
C4235      F4242   1.357       .  S
C4236      C4237   1.423       .  A
C4237      C4238   1.396       .  A
C4237      F4244   1.359       .  S
C4238      C4239   1.397       .  A
C4238      F4243   1.358       .  S
C4239      C4240   1.412       .  A
C4240      F4241   1.355       .  S
C4245      C4246   1.418       .  A
C4245      C4250   1.393       .  A
C4245      F4252   1.354       .  S
C4246      C4247   1.391       .  A
C4247      C4248   1.397       .  A
C4247      F4254   1.357       .  S
C4248      C4249   1.414       .  A
C4248      F4253   1.349       .  S
C4249      C4250   1.391       .  A
C4250      F4251   1.358       .  S
C4255      C4256   1.411       .  A
C4255      C4260   1.418       .  A
C4255      F4262   1.356       .  S
C4256      C4257   1.403       .  A
C4257      C4258   1.384       .  A
C4257      F4264   1.355       .  S
C4258      C4259   1.403       .  A
C4258      F4263   1.354       .  S
C4259      C4260   1.416       .  A
C4260      F4261   1.355       .  S
C4265      C4266   1.393       .  A
C4265      C4270   1.389       .  A
C4265      F4272   1.357       .  S
C4266      C4267   1.413       .  A
C4267      C4268   1.404       .  A
C4267      F4274   1.357       .  S
C4268      C4269   1.400       .  A
C4268      F4273   1.357       .  S
C4269      C4270   1.415       .  A
C4270      F4271   1.359       .  S
C4275      C4276   1.406       .  A
C4275      C4280   1.411       .  A
C4275      F4282   1.357       .  S
C4276      C4277   1.400       .  A
C4277      C4278   1.393       .  A
C4277      F4284   1.357       .  S
C4278      C4279   1.415       .  A
C4278      F4283   1.357       .  S
C4279      C4280   1.415       .  A
C4280      F4281   1.356       .  S
O4285     Zr4297   2.487       .  S
O4285      C4287   1.299       .  A
O4286      C4287   1.276       .  A
C4287      C4848   1.494       .  S
O4288     Zr4300   2.452       .  S
O4288      C4290   1.279       .  A
O4289     Zr4324   2.439       .  S
O4289      C4290   1.278       .  A
C4290      C4871   1.490       .  S
O4291     Zr4300   2.406       .  S
O4291      C4293   1.280       .  A
O4292      C4293   1.286       .  A
C4293      C4891   1.467       .  S
O4294     Zr4297   2.513       .  S
O4294      C4296   1.300       .  A
O4295     Zr4324   2.337       .  S
O4295      C4296   1.272       .  A
C4296      C4838   1.461       .  S
Zr4297     O4298   2.435       .  S
Zr4297     O4299   2.434       .  S
Zr4297     O4303   2.363       .  S
Zr4297     O4304   2.373       .  S
O4298      H4341   0.990       .  S
O4299      H4340   0.990       .  S
O4299      H4344   0.990       .  S
Zr4300     O4301   2.442       .  S
Zr4300     O4302   2.439       .  S
Zr4300     O4304   2.372       .  S
Zr4300     O4303   2.349       .  S
Zr4300     O4328   2.393       .  S
Zr4300     O4330   2.383       .  S
O4301      H4342   0.987       .  S
O4301      H4345   0.988       .  S
O4302      H4335   0.990       .  S
O4304     Zr4324   2.387       .  S
O4304      H4331   0.965       .  S
O4305     Zr4317   2.534       .  S
O4305      C4307   1.297       .  A
O4306      C4307   1.262       .  A
C4307      C4818   1.504       .  S
O4308     Zr4320   2.419       .  S
O4308      C4310   1.282       .  A
O4309     Zr4323   2.441       .  S
O4309      C4310   1.290       .  A
C4310      C4881   1.485       .  S
O4311     Zr4320   2.447       .  S
O4311      C4313   1.289       .  A
O4312      C4313   1.288       .  A
C4313      C4861   1.469       .  S
O4314     Zr4317   2.522       .  S
O4314      C4316   1.304       .  A
O4315     Zr4323   2.354       .  S
O4315      C4316   1.273       .  A
C4316      C4831   1.500       .  S
Zr4317     O4318   2.434       .  S
Zr4317     O4319   2.435       .  S
Zr4317     O4326   2.274       .  S
Zr4317     O4325   2.370       .  S
Zr4317     O4329   2.379       .  S
Zr4317     O4327   2.380   1_556  S
O4318      H4338   0.990       .  S
O4318      H4343   0.990       .  S
O4319      H4339   0.990       .  S
Zr4320     O4321   2.439       .  S
Zr4320     O4322   2.443       .  S
Zr4320     O4326   2.268       .  S
Zr4320     O4325   2.370       .  S
O4321      H4337   0.990       .  S
O4322      H4336   0.990       .  S
O4322      H4346   0.990       .  S
Zr4323     O4326   2.243       .  S
Zr4323     O4329   2.403       .  S
Zr4324     O4330   2.375       .  S
O4325      H4333   0.960       .  S
O4328      H4332   0.966       .  S
O4329      H4334   0.966       .  S
O4347     Zr4359   2.398       .  S
O4347      C4349   1.279       .  A
O4348      C4349   1.288       .  A
C4349      C4808   1.473       .  S
O4350     Zr4362   2.534       .  S
O4350      C4352   1.306       .  A
O4351      C4352   1.272       .  A
C4352      C4738   1.509       .  S
O4353     Zr4362   2.544       .  S
O4353      C4355   1.307       .  A
O4354     Zr4385   2.341   1_554  S
C4355      C4748   1.477       .  S
O4356     Zr4359   2.427       .  S
O4356      C4358   1.274       .  A
O4357      C4358   1.284       .  A
C4358      C4788   1.510       .  S
Zr4359     O4360   2.427       .  S
Zr4359     O4361   2.434       .  S
Zr4359     O4365   2.363       .  S
Zr4359     O4366   2.386       .  S
O4360      H4403   0.990       .  S
O4361      H4402   0.990       .  S
O4361      H4406   0.990       .  S
Zr4362     O4363   2.435       .  S
Zr4362     O4364   2.435       .  S
Zr4362     O4366   2.377       .  S
Zr4362     O4365   2.368       .  S
O4363      H4404   0.990       .  S
O4363      H4407   0.990       .  S
O4364      H4397   0.990       .  S
O4366      H4393   0.963       .  S
O4367     Zr4379   2.430       .  S
O4367      C4369   1.281       .  A
O4368     Zr4386   2.477       .  S
O4368      C4369   1.291       .  A
C4369      C4781   1.512       .  S
O4370     Zr4382   2.560       .  S
O4370      C4372   1.302       .  A
O4371     Zr4385   2.353       .  S
O4371      C4372   1.254       .  A
C4372      C4768   1.502       .  S
O4373     Zr4382   2.527       .  S
O4373      C4375   1.305       .  A
O4374     Zr4386   2.344       .  S
O4374      C4375   1.272       .  A
C4375      C4761   1.494       .  S
O4376     Zr4379   2.418       .  S
O4376      C4378   1.272       .  A
O4377     Zr4385   2.491       .  S
O4377      C4378   1.288       .  A
C4378      C4801   1.501       .  S
Zr4379     O4380   2.461       .  S
Zr4379     O4381   2.439       .  S
Zr4379     O4387   2.356       .  S
Zr4379     O4388   2.368       .  S
Zr4379     O4391   2.411       .  S
Zr4379     O4389   2.375       .  S
O4380      H4400   0.989       .  S
O4380      H4405   0.984       .  S
O4381      H4401   0.990       .  S
Zr4382     O4383   2.437       .  S
Zr4382     O4384   2.435       .  S
Zr4382     O4388   2.377       .  S
Zr4382     O4387   2.372       .  S
Zr4382     O4392   2.401       .  S
Zr4382     O4390   2.378       .  S
O4383      H4399   0.990       .  S
O4384      H4398   0.990       .  S
O4384      H4408   0.990       .  S
Zr4385     O4388   2.374       .  S
Zr4385     O4390   2.436       .  S
Zr4385     O4391   2.380       .  S
Zr4386     O4387   2.376       .  S
Zr4386     O4389   2.375       .  S
Zr4386     O4392   2.411       .  S
O4387      H4395   0.963       .  S
O4390      H4394   0.966       .  S
O4391      H4396   0.966   1_556  S
O4409     Zr4421   2.550       .  S
O4409      C4411   1.309       .  A
O4410      C4411   1.270       .  A
C4411      C4731   1.483       .  S
O4412     Zr4424   2.418       .  S
O4412      C4414   1.276       .  A
O4413     Zr4448   2.474       .  S
O4413      C4414   1.291       .  A
C4414      C4751   1.506       .  S
O4415     Zr4424   2.398       .  S
O4415      C4417   1.273       .  A
O4416      C4417   1.293       .  A
C4417      C4851   1.485       .  S
O4418     Zr4421   2.560       .  S
O4418      C4420   1.310       .  A
O4419     Zr4448   2.328       .  S
O4419      C4420   1.265       .  A
C4420      C4721   1.501       .  S
Zr4421     O4422   2.435       .  S
Zr4421     O4423   2.436       .  S
Zr4421     O4427   2.275       .  S
Zr4421     O4428   2.373       .  S
Zr4421     O4451   2.364       .  S
O4422      H4465   0.990       .  S
O4423      H4464   0.990       .  S
O4423      H4468   0.990       .  S
Zr4424     O4425   2.443       .  S
Zr4424     O4426   2.434       .  S
Zr4424     O4427   2.256       .  S
Zr4424     O4428   2.372       .  S
Zr4424     O4452   2.390       .  S
Zr4424     O4454   2.402       .  S
O4425      H4466   0.990       .  S
O4425      H4469   0.990       .  S
O4426      H4459   0.989       .  S
O4428     Zr4448   2.399       .  S
O4428      H4455   0.964       .  S
O4429     Zr4441   2.618       .  S
O4429      C4431   1.324       .  A
O4430      C4431   1.271       .  A
C4431      C4701   1.528       .  S
O4432     Zr4444   2.387       .  S
O4432      C4434   1.271       .  A
O4433     Zr4447   2.457       .  S
O4433      C4434   1.287       .  A
C4434      C4841   1.489       .  S
O4435     Zr4444   2.390       .  S
O4435      C4437   1.276       .  A
O4436      C4437   1.299       .  A
C4437      C4741   1.475       .  S
O4438     Zr4441   2.578       .  S
O4438      C4440   1.316       .  A
O4439     Zr4447   2.371       .  S
O4439      C4440   1.276       .  A
C4440      C4711   1.510       .  S
Zr4441     O4442   2.435       .  S
Zr4441     O4443   2.435       .  S
Zr4441     O4450   2.297       .  S
Zr4441     O4449   2.361       .  S
Zr4441     O4453   2.388       .  S
O4442      H4462   0.990       .  S
O4442      H4467   0.990       .  S
O4443      H4463   0.990       .  S
Zr4444     O4445   2.436       .  S
Zr4444     O4446   2.438       .  S
Zr4444     O4450   2.286       .  S
Zr4444     O4449   2.356       .  S
O4445      H4461   0.990       .  S
O4446      H4460   0.987       .  S
O4446      H4470   0.990       .  S
Zr4447     O4450   2.260       .  S
Zr4447     O4453   2.408       .  S
Zr4448     O4451   2.425       .  S
Zr4448     O4454   2.373       .  S
O4449      H4457   0.960       .  S
O4452      H4456   0.966       .  S
O4453      H4458   0.964       .  S
O4471     Zr4483   2.385       .  S
O4471      C4473   1.274       .  A
O4472      C4473   1.296       .  A
C4473      C4828   1.482       .  S
O4474     Zr4486   2.566       .  S
O4474      C4476   1.314       .  A
O4475      C4476   1.273       .  A
C4476      C4678   1.500       .  S
O4477     Zr4486   2.581       .  S
O4477      C4479   1.316       .  A
O4478      C4479   1.272       .  A
C4479      C4691   1.497       .  S
O4480     Zr4483   2.403       .  S
O4480      C4482   1.277       .  A
O4481      C4482   1.296       .  A
C4482      C4771   1.479       .  S
Zr4483     O4484   2.438       .  S
Zr4483     O4485   2.429       .  S
Zr4483     O4489   2.369       .  S
Zr4483     O4490   2.377       .  S
O4484      H4527   0.991       .  S
O4485      H4526   0.990       .  S
O4485      H4530   0.986       .  S
Zr4486     O4487   2.435       .  S
Zr4486     O4488   2.434       .  S
Zr4486     O4490   2.369       .  S
Zr4486     O4489   2.375       .  S
O4487      H4528   0.990       .  S
O4487      H4531   0.990       .  S
O4488      H4521   0.990       .  S
O4490      H4517   0.961       .  S
O4491     Zr4503   2.420       .  S
O4491      C4493   1.283       .  A
O4492     Zr4510   2.472       .  S
O4492      C4493   1.293       .  A
C4493      C4758   1.468       .  S
O4494     Zr4506   2.540       .  S
O4494      C4496   1.310       .  A
O4495     Zr4509   2.346       .  S
O4495      C4496   1.274       .  A
C4496      C4671   1.493       .  S
O4497     Zr4506   2.540       .  S
O4497      C4499   1.295       .  A
O4498     Zr4510   2.366       .  S
O4498      C4499   1.257       .  A
C4499      C4658   1.508       .  S
O4500     Zr4503   2.390       .  S
O4500      C4502   1.275       .  A
O4501     Zr4509   2.513       .  S
O4501      C4502   1.302       .  A
C4502      C4821   1.490       .  S
Zr4503     O4504   2.443       .  S
Zr4503     O4505   2.433       .  S
Zr4503     O4511   2.366       .  S
Zr4503     O4512   2.368       .  S
Zr4503     O4515   2.393       .  S
Zr4503     O4513   2.354       .  S
O4504      H4524   0.991       .  S
O4504      H4529   0.990       .  S
O4505      H4525   0.990       .  S
Zr4506     O4507   2.436       .  S
Zr4506     O4508   2.435       .  S
Zr4506     O4512   2.363       .  S
Zr4506     O4511   2.374       .  S
Zr4506     O4516   2.382       .  S
Zr4506     O4514   2.369       .  S
O4507      H4523   0.990       .  S
O4508      H4522   0.990       .  S
O4508      H4532   0.990       .  S
Zr4509     O4512   2.362       .  S
Zr4509     O4514   2.417       .  S
Zr4509     O4515   2.384       .  S
Zr4510     O4511   2.394       .  S
Zr4510     O4513   2.362       .  S
Zr4510     O4516   2.411       .  S
O4511      H4519   0.956       .  S
O4514      H4518   0.965       .  S
O4515      H4520   0.963       .  S
O4533      C4535   1.311       .  A
O4534     Zr4571   2.331       .  S
O4534      C4535   1.270       .  A
C4535      C4728   1.485       .  S
O4536     Zr4548   2.445       .  S
O4536      C4538   1.283       .  A
O4537     Zr4572   2.424       .  S
O4537      C4538   1.279       .  A
C4538      C4811   1.477       .  S
O4539      C4541   1.278       .  A
O4540     Zr4571   2.494       .  S
O4540      C4541   1.298       .  A
C4541      C4888   1.482       .  S
O4542     Zr4545   2.499       .  S
O4542      C4544   1.293       .  A
O4543     Zr4572   2.372       .  S
O4543      C4544   1.260       .  A
C4544      C4718   1.487       .  S
Zr4545     O4546   2.434       .  S
Zr4545     O4547   2.427       .  S
Zr4545     O4552   2.382       .  S
Zr4545     O4575   2.393       .  S
O4547      H4592   0.990       .  S
Zr4548     O4549   2.439       .  S
Zr4548     O4550   2.436       .  S
Zr4548     O4552   2.360       .  S
Zr4548     O4578   2.369       .  S
O4549      H4590   0.989       .  S
O4549      H4593   0.990       .  S
O4550      H4583   0.990       .  S
O4551     Zr4571   2.352       .  S
O4552     Zr4572   2.406       .  S
O4552      H4579   0.961       .  S
O4553     Zr4565   2.576       .  S
O4553      C4555   1.315       .  A
O4554     Zr4572   2.322       .  S
O4554      C4555   1.270       .  A
C4555      C4681   1.488       .  S
O4556      C4558   1.278       .  A
O4557     Zr4571   2.456       .  S
O4557      C4558   1.290       .  A
C4558      C4878   1.475       .  S
O4559     Zr4568   2.435       .  S
O4559      C4561   1.277       .  A
O4560     Zr4572   2.435       .  S
O4560      C4561   1.276       .  A
C4561      C4798   1.493       .  S
O4562      C4564   1.311       .  A
O4563     Zr4571   2.388       .  S
O4563      C4564   1.279       .  A
C4564      C4688   1.505       .  S
Zr4565     O4566   2.436       .  S
Zr4565     O4567   2.427       .  S
Zr4565     O4573   2.374       .  S
Zr4565     O4575   2.356       .  S
O4566      H4586   0.990       .  S
O4566      H4591   0.990       .  S
O4567      H4587   0.990   1_655  S
Zr4568     O4569   2.433       .  S
Zr4568     O4570   2.438       .  S
Zr4568     O4573   2.375       .  S
Zr4568     O4578   2.377       .  S
O4569      H4585   0.990       .  S
O4570      H4584   0.990   1_655  S
O4570      H4594   0.990       .  S
Zr4571     O4574   2.371       .  S
Zr4571     O4576   2.382       .  S
Zr4571     O4577   2.409       .  S
Zr4572     O4573   2.405       .  S
Zr4572     O4575   2.403       .  S
Zr4572     O4578   2.391       .  S
O4573      H4581   0.966       .  S
O4576      H4580   0.966       .  S
O4577      H4582   0.964       .  S
O4595      C4597   1.270       .  A
O4596     Zr4633   2.455       .  S
O4596      C4597   1.279       .  A
C4597      C4868   1.489       .  S
O4598     Zr4610   2.549       .  S
O4598      C4600   1.311       .  A
O4599     Zr4634   2.376       .  S
O4599      C4600   1.276       .  A
C4600      C4698   1.517       .  S
O4601      C4603   1.314       .  A
O4602     Zr4633   2.340       .  S
O4602      C4603   1.272       .  A
C4603      C4708   1.507       .  S
O4604     Zr4607   2.416       .  S
O4604      C4606   1.275       .  A
O4605     Zr4634   2.453       .  S
O4605      C4606   1.279       .  A
C4606      C4791   1.504       .  S
Zr4607     O4608   2.439       .  S
Zr4607     O4609   2.440   1_655  S
Zr4607     O4614   2.391       .  S
Zr4607     O4637   2.390       .  S
O4609      H4650   0.987       .  S
O4609      H4654   0.990   1_455  S
Zr4610     O4611   2.436       .  S
Zr4610     O4612   2.440       .  S
Zr4610     O4614   2.372       .  S
Zr4610     O4640   2.390       .  S
O4611      H4652   0.990       .  S
O4611      H4655   0.990       .  S
O4613     Zr4633   2.267       .  S
O4614     Zr4634   2.412       .  S
O4614      H4641   0.965       .  S
O4615     Zr4627   2.409   1_655  S
O4615      C4617   1.272       .  A
O4616     Zr4634   2.493       .  S
O4616      C4617   1.290       .  A
C4617      C4778   1.508       .  S
O4618      C4620   1.297       .  A
O4619     Zr4633   2.364       .  S
O4619      C4620   1.257       .  A
C4620      C4668   1.501       .  S
O4621     Zr4630   2.564       .  S
O4621      C4623   1.312       .  A
O4622     Zr4634   2.320       .  S
O4622      C4623   1.267       .  A
C4623      C4661   1.503       .  S
O4624      C4626   1.275       .  A
O4625     Zr4633   2.463       .  S
O4625      C4626   1.289       .  A
C4626      C4858   1.475       .  S
Zr4627     O4628   2.442   1_455  S
Zr4627     O4629   2.438       .  S
Zr4627     O4635   2.379   1_455  S
Zr4627     O4637   2.370   1_455  S
O4628      H4648   0.990   1_655  S
O4628      H4653   0.990       .  S
O4629      H4649   0.990       .  S
Zr4630     O4631   2.436       .  S
Zr4630     O4632   2.437       .  S
Zr4630     O4635   2.367       .  S
Zr4630     O4640   2.381       .  S
O4631      H4647   0.990       .  S
O4632      H4646   0.990       .  S
O4632      H4656   0.990   1_655  S
Zr4633     O4636   2.264       .  S
Zr4633     O4638   2.432       .  S
Zr4633     O4639   2.394       .  S
Zr4634     O4635   2.400       .  S
Zr4634     O4637   2.388       .  S
Zr4634     O4640   2.416       .  S
O4635      H4643   0.963       .  S
O4638      H4642   0.967       .  S
O4639      H4644   0.967       .  S
C4657      C4658   1.396       .  A
C4657      C4662   1.405       .  A
C4657      F4664   1.357       .  S
C4658      C4659   1.428       .  A
C4659      C4660   1.404       .  A
C4659      F4666   1.351       .  S
C4660      C4661   1.394       .  A
C4660      F4665   1.358       .  S
C4661      C4662   1.429       .  A
C4662      F4663   1.358       .  S
C4667      C4668   1.426       .  A
C4667      C4672   1.395       .  A
C4667      F4674   1.358       .  S
C4668      C4669   1.400       .  A
C4669      C4670   1.408       .  A
C4669      F4676   1.357       .  S
C4670      C4671   1.425       .  A
C4670      F4675   1.358       .  S
C4671      C4672   1.394       .  A
C4672      F4673   1.358       .  S
C4677      C4678   1.421       .  A
C4677      C4682   1.405       .  A
C4677      F4684   1.358       .  S
C4678      C4679   1.403       .  A
C4679      C4680   1.413       .  A
C4679      F4686   1.358       .  S
C4680      C4681   1.421       .  A
C4680      F4685   1.356       .  S
C4681      C4682   1.398       .  A
C4682      F4683   1.358       .  S
C4687      C4688   1.417       .  A
C4687      C4692   1.409       .  A
C4687      F4694   1.356       .  S
C4688      C4689   1.406       .  A
C4689      C4690   1.415       .  A
C4689      F4696   1.358       .  S
C4690      C4691   1.420       .  A
C4690      F4695   1.358       .  S
C4691      C4692   1.403       .  A
C4692      F4693   1.357       .  S
C4697      C4698   1.396       .  A
C4697      C4702   1.399       .  A
C4697      F4704   1.358       .  S
C4698      C4699   1.431       .  A
C4699      C4700   1.420       .  A
C4699      F4706   1.358       .  S
C4700      C4701   1.406       .  A
C4700      F4705   1.357       .  S
C4701      C4702   1.436       .  A
C4702      F4703   1.358       .  S
C4707      C4708   1.421       .  A
C4707      C4712   1.408       .  A
C4707      F4714   1.358       .  S
C4708      C4709   1.405       .  A
C4709      C4710   1.417       .  A
C4709      F4716   1.358       .  S
C4710      C4711   1.425       .  A
C4710      F4715   1.358       .  S
C4711      C4712   1.401       .  A
C4712      F4713   1.357       .  S
C4717      C4718   1.423       .  A
C4717      C4722   1.406       .  A
C4717      F4724   1.356       .  S
C4718      C4719   1.390       .  A
C4719      C4720   1.394       .  A
C4719      F4726   1.358       .  S
C4720      C4721   1.430       .  A
C4720      F4725   1.357       .  S
C4721      C4722   1.399       .  A
C4722      F4723   1.357       .  S
C4727      C4728   1.414       .  A
C4727      C4732   1.403       .  A
C4727      F4734   1.357       .  S
C4728      C4729   1.406       .  A
C4729      C4730   1.410       .  A
C4729      F4736   1.358       .  S
C4730      C4731   1.416       .  A
C4730      F4735   1.358       .  S
C4731      C4732   1.398       .  A
C4732      F4733   1.352       .  S
C4737      C4738   1.429       .  A
C4737      C4742   1.398       .  A
C4737      F4744   1.358       .  S
C4738      C4739   1.406       .  A
C4739      C4740   1.410       .  A
C4739      F4746   1.357       .  S
C4740      C4741   1.416       .  A
C4740      F4745   1.357       .  S
C4741      C4742   1.393       .  A
C4742      F4743   1.358       .  S
C4747      C4748   1.409       .  A
C4747      C4752   1.410       .  A
C4748      C4749   1.407       .  A
C4749      C4750   1.403       .  A
C4749      F4756   1.358       .  S
C4750      C4751   1.412       .  A
C4750      F4755   1.357       .  S
C4751      C4752   1.414       .  A
C4752      F4753   1.356       .  S
C4757      C4758   1.415       .  A
C4757      C4762   1.402       .  A
C4757      F4764   1.357       .  S
C4758      C4759   1.387       .  A
C4759      C4760   1.394       .  A
C4759      F4766   1.358       .  S
C4760      C4761   1.428       .  A
C4760      F4765   1.357       .  S
C4761      C4762   1.401       .  A
C4762      F4763   1.358       .  S
C4767      C4768   1.401       .  A
C4767      C4772   1.411       .  A
C4767      F4774   1.357       .  S
C4768      C4769   1.429       .  A
C4769      C4770   1.397       .  A
C4769      F4776   1.358       .  S
C4770      C4771   1.390       .  A
C4770      F4775   1.358       .  S
C4771      C4772   1.419       .  A
C4772      F4773   1.357       .  S
C4777      C4778   1.409       .  A
C4777      C4782   1.402       .  A
C4777      F4784   1.358       .  S
C4778      C4779   1.415       .  A
C4779      C4780   1.416       .  A
C4779      F4786   1.357       .  S
C4780      C4781   1.412       .  A
C4780      F4785   1.353       .  S
C4781      C4782   1.412       .  A
C4782      F4783   1.356       .  S
C4787      C4788   1.408       .  A
C4787      C4792   1.394       .  A
C4787      F4794   1.355       .  S
C4788      C4789   1.417       .  A
C4789      C4790   1.419       .  A
C4789      F4796   1.356       .  S
C4790      C4791   1.416       .  A
C4790      F4795   1.358       .  S
C4791      C4792   1.402       .  A
C4792      F4793   1.354       .  S
C4797      C4798   1.398       .  A
C4797      C4802   1.384       .  A
C4797      F4804   1.360       .  S
C4798      C4799   1.416       .  A
C4799      C4800   1.418       .  A
C4799      F4806   1.356       .  S
C4800      C4801   1.411       .  A
C4800      F4805   1.355       .  S
C4801      C4802   1.407       .  A
C4802      F4803   1.348       .  S
C4807      C4808   1.397       .  A
C4807      C4812   1.406       .  A
C4807      F4814   1.357       .  S
C4808      C4809   1.412       .  A
C4809      C4810   1.389       .  A
C4809      F4816   1.355       .  S
C4810      C4811   1.395       .  A
C4810      F4815   1.358       .  S
C4811      C4812   1.417       .  A
C4812      F4813   1.352       .  S
C4817      C4818   1.426       .  A
C4817      C4822   1.404       .  A
C4817      F4824   1.357       .  S
C4818      C4819   1.401       .  A
C4819      C4820   1.408       .  A
C4819      F4826   1.358       .  S
C4820      C4821   1.420       .  A
C4820      F4825   1.357       .  S
C4821      C4822   1.394       .  A
C4822      F4823   1.357       .  S
C4827      C4828   1.394       .  A
C4827      C4832   1.401       .  A
C4827      F4834   1.358       .  S
C4828      C4829   1.418       .  A
C4829      C4830   1.401       .  A
C4829      F4836   1.359       .  S
C4830      C4831   1.401       .  A
C4830      F4835   1.357       .  S
C4831      C4832   1.427       .  A
C4832      F4833   1.358       .  S
C4837      C4838   1.404       .  A
C4837      C4842   1.397       .  A
C4837      F4844   1.358       .  S
C4838      C4839   1.404       .  A
C4839      C4840   1.402       .  A
C4839      F4846   1.358       .  S
C4840      C4841   1.410       .  A
C4840      F4845   1.353       .  S
C4841      C4842   1.411       .  A
C4842      F4843   1.356       .  S
C4847      C4848   1.402       .  A
C4847      C4852   1.397       .  A
C4847      F4854   1.358       .  S
C4848      C4849   1.422       .  A
C4849      C4850   1.402       .  A
C4849      F4856   1.359       .  S
C4850      C4851   1.400       .  A
C4850      F4855   1.358       .  S
C4851      C4852   1.415       .  A
C4852      F4853   1.357       .  S
C4857      C4858   1.413       .  A
C4857      C4862   1.389       .  A
C4857      F4864   1.356       .  S
C4858      C4859   1.401       .  A
C4859      C4860   1.408       .  A
C4859      F4866   1.358       .  S
C4860      C4861   1.417       .  A
C4860      F4865   1.357       .  S
C4861      C4862   1.390       .  A
C4862      F4863   1.357       .  S
C4867      C4868   1.411       .  A
C4867      C4872   1.418       .  A
C4867      F4874   1.354       .  S
C4868      C4869   1.398       .  A
C4869      C4870   1.380       .  A
C4869      F4876   1.359       .  S
C4870      C4871   1.398       .  A
C4870      F4875   1.352       .  S
C4871      C4872   1.416       .  A
C4872      F4873   1.357       .  S
C4877      C4878   1.396       .  A
C4877      C4882   1.399       .  A
C4877      F4884   1.357       .  S
C4878      C4879   1.414       .  A
C4879      C4880   1.399       .  A
C4879      F4886   1.359       .  S
C4880      C4881   1.402       .  A
C4880      F4885   1.358       .  S
C4881      C4882   1.417       .  A
C4882      F4883   1.358       .  S
C4887      C4888   1.398       .  A
C4887      C4892   1.400       .  A
C4887      F4894   1.357       .  S
C4888      C4889   1.421       .  A
C4889      C4890   1.397       .  A
C4889      F4896   1.358       .  S
C4890      C4891   1.392       .  A
C4890      F4895   1.358       .  S
C4891      C4892   1.413       .  A
C4892      F4893   1.358       .  S
