geometry optimzed in LAMMPS
_audit_creation_date              2020-11-30 
_audit_creation_method            'lammps2cif' 
_symmetry_space_group_name_H-M    'P1' 
_symmetry_Int_Tables_number       1 
_symmetry_cell_setting            triclinic 
loop_ 
_symmetry_equiv_pos_as_xyz 
  x,y,z 
_cell_length_a                    29.63993746 
_cell_length_b                    33.10051897483739 
_cell_length_c                    31.39232577726722 
_cell_angle_alpha                 90.205226043817 
_cell_angle_beta                  89.9011076805619 
_cell_angle_gamma                 89.62852165591495 
loop_ 
_atom_site_label 
_atom_site_type_symbol 
_atom_site_fract_x 
_atom_site_fract_y 
_atom_site_fract_z 
_atom_site_charge 
C1          C  0.37374903  0.40111618  0.08847695     0.43200
N2          N  0.36770203  0.45659559  0.05398498     0.02100
C3          C  0.17499645  0.57743163  0.06617931    -0.05800
H4          H  0.13615714  0.43712184  0.04969439     0.07500
C5          C  0.22846916  0.43467937  0.89715101    -0.06200
Co6        Co  0.28721697  0.50449038  0.08212601     0.74200
N7          N  0.20215784  0.46454835  0.05233655    -0.25300
Co8        Co  0.20465553  0.50748301  0.00357703     0.74100
C9          C  0.18303858  0.42112587  0.90682067     0.43300
N10         N  0.33929990  0.45600805  0.93047839     0.01700
N11         N  0.20441688  0.46337327  0.95501565     0.01800
N12         N  0.23222485  0.57517338  0.11306992    -0.46200
H13         H  0.31214459  0.41655279  0.13017347     0.07500
N14         N  0.23473293  0.46287096  0.08098678     0.02100
N15         N  0.20967753  0.55065743  0.95516372     0.01800
C16         C  0.19545087  0.59585632  0.90801093     0.43400
N17         N  0.37060388  0.45600578  0.96018595    -0.24800
C18         C  0.34462482  0.57989180  0.10553810    -0.05700
N19         N  0.39154585  0.42275424  0.05632591    -0.45900
N20         N  0.17915314  0.57809327  0.94367584    -0.46100
C21         C  0.38501944  0.59914743  0.08826640     0.43200
N22         N  0.23955171  0.55047465  0.08069502     0.02100
N23         N  0.37386930  0.54379648  0.95978255    -0.24800
N24         N  0.33472869  0.45815583  0.08214692    -0.25300
N25         N  0.34267751  0.54491160  0.92999542     0.01700
H26         H  0.42668154  0.58494650  0.97758538     0.07600
H27         H  0.25847797  0.57856608  0.86934524     0.07600
N28         N  0.20663613  0.55106294  0.05241332    -0.25400
N29         N  0.23855922  0.46105098  0.92794977    -0.25000
N30         N  0.37188778  0.54446077  0.05361226     0.02100
C31         C  0.18497762  0.42166643  0.10454334     0.43500
C32         C  0.39696584  0.42343028  0.95514861    -0.06200
N33         N  0.24343515  0.54815579  0.92776378    -0.25000
H34         H  0.24808719  0.42970366  0.86849792     0.07600
N35         N  0.22557531  0.43796562  0.11252438    -0.46200
H36         H  0.42475200  0.41517721  0.97566501     0.07600
C37         C  0.38023603  0.59959841  0.92116509     0.43300
C38         C  0.33617692  0.42466286  0.10576461    -0.05700
Co39       Co  0.37223323  0.50013650  0.00691248     0.73800
N40         N  0.34206154  0.42389992  0.90527851    -0.45900
C41         C  0.19257261  0.59396292  0.10636039     0.43600
N42         N  0.39972996  0.57538427  0.05608353    -0.45900
Co43       Co  0.29120518  0.50229362  0.92833100     0.73900
C44         C  0.23781629  0.57585354  0.89761082    -0.06200
C45         C  0.16873747  0.43986789  0.06485048    -0.05800
N46         N  0.33910682  0.54651459  0.08187771    -0.25300
N47         N  0.16966970  0.44110111  0.94250163    -0.46100
H48         H  0.14200496  0.58158805  0.05214136     0.07600
C49         C  0.39994120  0.57649943  0.95605164    -0.06200
Cl50       Cl  0.28861752  0.50346821  0.00523389    -0.49200
C51         C  0.37792501  0.40196232  0.91877690     0.43300
H52         H  0.32156108  0.59033104  0.12992912     0.07500
N53         N  0.34471180  0.57816188  0.90680718    -0.45900
C54         C  0.80807865  0.41089339  0.10145439     0.43200
N55         N  0.78991573  0.45714278  0.05643922     0.02100
C56         C  0.60419934  0.58410614  0.06522368    -0.05800
H57         H  0.56931465  0.42229869  0.05000910     0.07500
C58         C  0.64572488  0.42668146  0.91442209    -0.06200
Co59       Co  0.70959134  0.50409963  0.08827654     0.74200
N60         N  0.62493974  0.46240126  0.06230539    -0.25300
Co61       Co  0.62319410  0.50554499  0.01511184     0.74100
C62         C  0.60681497  0.40673437  0.93369442     0.43300
N63         N  0.75249717  0.45793265  0.93317304     0.01700
N64         N  0.62142287  0.46101724  0.96848397     0.01800
N65         N  0.66473740  0.58579507  0.10859881    -0.46200
H66         H  0.74717980  0.42578765  0.14380154     0.07500
N67         N  0.65821411  0.46154840  0.08998357     0.02100
N68         N  0.62378521  0.54931461  0.96801296     0.01800
C69         C  0.61513778  0.60595529  0.93573116     0.43400
N70         N  0.78711674  0.45792688  0.95960945    -0.24800
C71         C  0.77309592  0.57042602  0.11793532    -0.05700
N72         N  0.82177361  0.43022161  0.06572446    -0.45900
N73         N  0.59964728  0.58305041  0.96793463    -0.46100
C74         C  0.81806411  0.58413135  0.10720098     0.43200
N75         N  0.66197155  0.55076542  0.08823732     0.02100
N76         N  0.78926674  0.54446399  0.95941118    -0.24800
N77         N  0.75769647  0.45824681  0.08554538    -0.25300
N78         N  0.75447066  0.54529927  0.93310674     0.01700
H79         H  0.85516432  0.57208977  0.95586333     0.07600
H80         H  0.67419596  0.59158522  0.89013099     0.07600
N81         N  0.62791390  0.54988107  0.06139674    -0.25400
N82         N  0.65228972  0.45979033  0.93825276    -0.25000
N83         N  0.79422836  0.54437441  0.05771940     0.02100
C84         C  0.61950258  0.40873322  0.10380172     0.43500
C85         C  0.81863881  0.43216273  0.94435899    -0.06200
N86         N  0.65486102  0.54865972  0.93801883    -0.25000
H87         H  0.66712665  0.41700367  0.88838476     0.07600
N88         N  0.65683456  0.42937508  0.11479886    -0.46200
H89         H  0.85228459  0.42836407  0.95706721     0.07600
C90         C  0.80168065  0.58606241  0.90435965     0.43300
C91         C  0.76577393  0.42968060  0.11443942    -0.05700
Co92       Co  0.79119212  0.50109394  0.00840088     0.73800
N93         N  0.75867096  0.43349896  0.90036820    -0.45900
C94         C  0.62926821  0.60848364  0.09558880     0.43600
N95         N  0.82974609  0.56595939  0.06989363    -0.45900
Co96       Co  0.70319744  0.50284826  0.93498206     0.73900
C97         C  0.65162351  0.58286381  0.91547763    -0.06200
C98         C  0.59816786  0.43065124  0.06905961    -0.05800
N99         N  0.76161993  0.54547733  0.08643305    -0.25300
N100        N  0.59392984  0.42971828  0.96721891    -0.46100
H101        H  0.57602112  0.59278423  0.04546494     0.07600
C102        C  0.82127758  0.56911795  0.94358244    -0.06200
Cl103      Cl  0.70711736  0.50342615  0.01164314    -0.49200
C104        C  0.79928920  0.41561565  0.90500140     0.43300
H105        H  0.75493331  0.57384383  0.14766796     0.07500
N106        N  0.76075076  0.56932247  0.90029378    -0.45900
C107        C  0.40553368  0.09879103  0.10753980     0.43200
N108        N  0.44612093  0.04483820  0.11175321     0.02100
C109        C  0.44903086  0.92503320  0.29412618    -0.05800
H110        H  0.45200773  0.06496642  0.33119070     0.07500
C111        C  0.61719235  0.07260456  0.23579228    -0.06200
Co112      Co  0.42279704  0.99597203  0.18835985     0.74200
N113        N  0.45328304  0.03766541  0.26818279    -0.25300
Co114      Co  0.50940441  0.99699688  0.26370667     0.74100
C115        C  0.60933749  0.08629783  0.27907791     0.43300
N116        N  0.57772082  0.05023077  0.13469670     0.01700
N117        N  0.55827216  0.04310811  0.26181073     0.01800
N118        N  0.39583508  0.92559640  0.24301739    -0.46200
H119        H  0.36490970  0.08070648  0.16731820     0.07500
N120        N  0.42270931  0.03752041  0.23750898     0.02100
N121        N  0.56460609  0.95594831  0.25702410     0.01800
C122        C  0.62071884  0.91540254  0.26843153     0.43400
N123        N  0.54494433  0.05035458  0.10647568    -0.24800
C124        C  0.40056473  0.91958557  0.13589205    -0.05700
N125        N  0.44030107  0.07837046  0.08953500    -0.45900
N126        N  0.58234712  0.93111660  0.28597190    -0.46100
C127        C  0.41928026  0.89959858  0.09843807     0.43200
N128        N  0.42890348  0.95060359  0.23377107     0.02100
N129        N  0.55138307  0.96199754  0.10086440    -0.24800
N130        N  0.41773846  0.04210577  0.14385443    -0.25300
N131        N  0.58404901  0.96215189  0.12915469     0.01700
H132        H  0.53485858  0.92187686  0.04923508     0.07600
H133        H  0.65502907  0.93324597  0.20601604     0.07600
N134        N  0.46060893  0.95122702  0.26333304    -0.25400
N135        N  0.58505010  0.04556262  0.22820841    -0.25000
N136        N  0.45252881  0.95629383  0.10751380     0.02100
C137        C  0.39265737  0.07642620  0.28471693     0.43500
C138        C  0.54565909  0.08569764  0.08566795    -0.06200
N139        N  0.59088860  0.95886212  0.22311764    -0.25000
H140        H  0.64624959  0.07768898  0.21566617     0.07600
N141        N  0.38686973  0.05980960  0.24619343    -0.46200
H142        H  0.52150192  0.09531635  0.06199635     0.07600
C143        C  0.59798078  0.90976766  0.09042369     0.43300
C144        C  0.39033454  0.07440241  0.14355599    -0.05700
Co145      Co  0.49865277  0.00340736  0.10527631     0.73800
N146        N  0.60055592  0.08429473  0.13528715    -0.45900
C147        C  0.40555018  0.90801261  0.28055056     0.43600
N148        N  0.45172026  0.92385869  0.08271618    -0.45900
Co149      Co  0.58480663  0.00418089  0.17845835     0.73900
C150        C  0.62611076  0.93401284  0.22707957    -0.06200
C151        C  0.43674461  0.06117481  0.30018322    -0.05800
N152        N  0.42373640  0.95393595  0.13940717    -0.25300
N153        N  0.57293878  0.06588039  0.29390825    -0.46100
H154        H  0.46643083  0.92182873  0.32415469     0.07600
C155        C  0.55757354  0.93044785  0.07451352    -0.06200
Cl156      Cl  0.50390716  0.00010891  0.18434250    -0.49200
C157        C  0.58240621  0.10842538  0.10535999     0.43300
H158        H  0.37635367  0.90843077  0.15873674     0.07500
N159        N  0.61225208  0.93137974  0.12434128    -0.45900
C160        C  0.38028980  0.07242575  0.72081038     0.43200
N161        N  0.43956145  0.04004575  0.74216636     0.02100
C162        C  0.44083215  0.92537653  0.92687502    -0.05800
H163        H  0.45610994  0.09114529  0.94691245     0.07500
C164        C  0.59112810  0.08655741  0.86984371    -0.06200
Co165      Co  0.41304857  0.99859291  0.82318032     0.74200
N166        N  0.44121906  0.04610357  0.89916254    -0.25300
Co167      Co  0.49289728  0.00383208  0.90197424     0.74100
C168        C  0.57041390  0.10829486  0.90540450     0.43300
N169        N  0.57391868  0.04631941  0.77435326     0.01700
N170        N  0.54011570  0.04986022  0.89949857     0.01800
N171        N  0.39026668  0.92325015  0.87329296    -0.46200
H172        H  0.34402916  0.06188862  0.78397468     0.07500
N173        N  0.41134990  0.04467887  0.86825527     0.02100
N174        N  0.54443081  0.96163506  0.90217683     0.01800
C175        C  0.58228399  0.90744523  0.91355709     0.43400
N176        N  0.54474117  0.04396084  0.74261732    -0.24800
C177        C  0.38326337  0.92695457  0.76814655    -0.05700
N178        N  0.42137900  0.05806933  0.70834614    -0.45900
N179        N  0.54665811  0.92950882  0.92695886    -0.46100
C180        C  0.39428947  0.91111661  0.72615213     0.43200
N181        N  0.41514408  0.95613150  0.87139294     0.02100
N182        N  0.54912068  0.95791007  0.74572072    -0.24800
N183        N  0.41124448  0.04009906  0.77469803    -0.25300
N184        N  0.57834274  0.95941869  0.77748819     0.01700
H185        H  0.55222307  0.92927589  0.68385716     0.07600
H186        H  0.62840995  0.91898219  0.85593244     0.07600
N187        N  0.44543504  0.95791856  0.90190078    -0.25400
N188        N  0.57031676  0.05073641  0.86866649    -0.25000
N189        N  0.44520657  0.95366905  0.74538140     0.02100
C190        C  0.39888734  0.10157505  0.89911309     0.43500
C191        C  0.56041457  0.06678320  0.71032098    -0.06200
N192        N  0.57563255  0.96157832  0.87223159    -0.25000
H193        H  0.61562345  0.09718280  0.84700340     0.07600
N194        N  0.38599954  0.07764385  0.86651898    -0.46200
H195        H  0.54624707  0.06755470  0.67862813     0.07600
C196        C  0.61020125  0.91978828  0.73194257     0.43300
C197        C  0.37452295  0.06124285  0.76499221    -0.05700
Co198      Co  0.49455450  0.99898292  0.74313786     0.73800
N199        N  0.60875991  0.06945143  0.76548551    -0.45900
C200        C  0.40433313  0.90213012  0.90745619     0.43600
N201        N  0.43248918  0.92992632  0.71343095    -0.45900
Co202      Co  0.57522742  0.00452931  0.82359297     0.73900
C203        C  0.60165704  0.92861823  0.87718257    -0.06200
C204        C  0.43499255  0.08035615  0.92130659    -0.05800
N205        N  0.41566770  0.95351669  0.77697186    -0.25300
N206        N  0.53873262  0.08385073  0.92182072    -0.46100
H207        H  0.46218751  0.91775792  0.95357964     0.07600
C208        C  0.56639628  0.93352158  0.71525736    -0.06200
Cl209      Cl  0.49399380  0.00144053  0.82267158    -0.49200
C210        C  0.60324097  0.08387475  0.72583727     0.43300
H211        H  0.35211960  0.92393106  0.78583212     0.07500
N212        N  0.61490169  0.93740618  0.77034280    -0.45900
C213        C  0.09135984  0.35597350  0.39859959     0.43200
N214        N  0.05534872  0.35173750  0.45795014     0.02100
C215        C  0.05663486  0.17277070  0.57501669    -0.05800
H216        H  0.04448062  0.14706508  0.42192206     0.07500
C217        C  0.88298349  0.23653852  0.42670283    -0.06200
Co218      Co  0.08045573  0.27634744  0.50480017     0.74200
N219        N  0.04732284  0.20372177  0.45673361    -0.25300
Co220      Co  0.99356490  0.20570363  0.50162116     0.74100
C221        C  0.89157274  0.19674834  0.40861612     0.43300
N222        N  0.92319930  0.33139678  0.45504795     0.01700
N223        N  0.94343430  0.21086548  0.45441098     0.01800
N224        N  0.10895841  0.22185661  0.57613683    -0.46200
H225        H  0.13288022  0.29896925  0.41308103     0.07500
N226        N  0.07850349  0.23207356  0.45808516     0.02100
N227        N  0.93996011  0.20968463  0.54678136     0.01800
C228        C  0.88359654  0.19590502  0.58812407     0.43400
N229        N  0.95631352  0.35774085  0.45546620    -0.24800
C230        C  0.10601861  0.32131969  0.58817396    -0.05700
N231        N  0.05855812  0.37328312  0.42252681    -0.45900
N232        N  0.92215056  0.18048892  0.57056958    -0.46100
C233        C  0.08859898  0.35598190  0.61201001     0.43200
N234        N  0.07569719  0.23099587  0.55002407     0.02100
N235        N  0.95398824  0.35747882  0.55037415    -0.24800
N236        N  0.08362797  0.32088495  0.45836496    -0.25300
N237        N  0.92124574  0.33081066  0.54949668     0.01700
H238        H  0.97450269  0.40122808  0.59751267     0.07600
H239        H  0.85055274  0.25734407  0.57552051     0.07600
N240        N  0.04426127  0.20285719  0.54851230    -0.25400
N241        N  0.91596416  0.24247735  0.45487989    -0.25000
N242        N  0.05302684  0.35095395  0.55248040     0.02100
C243        C  0.10473323  0.19022924  0.41148869     0.43500
C244        C  0.95468824  0.37891760  0.41894918    -0.06200
N245        N  0.91385591  0.24218940  0.54655162    -0.25000
H246        H  0.85338343  0.25552493  0.42323625     0.07600
N247        N  0.11262973  0.22502748  0.43210207    -0.46200
H248        H  0.97852072  0.40161351  0.40908360     0.07600
C249        C  0.91251866  0.36130470  0.60975240     0.43300
C250        C  0.10831306  0.32150110  0.42261119    -0.05700
Co251      Co  0.00469597  0.35597246  0.50408298     0.73800
N252        N  0.89908753  0.33277852  0.41961908    -0.45900
C253        C  0.09977554  0.18581757  0.59359569     0.43600
N254        N  0.05554153  0.37265891  0.58803057    -0.45900
Co255      Co  0.91811464  0.28717740  0.50152950     0.73900
C256        C  0.87901086  0.23689690  0.57262183    -0.06200
C257        C  0.06122314  0.17538437  0.42823264    -0.05800
N258        N  0.08159673  0.32029358  0.55229935    -0.25300
N259        N  0.92902187  0.18210266  0.42817532    -0.46100
H260        H  0.03960256  0.14413697  0.57802955     0.07600
C261        C  0.95076976  0.37876084  0.58685655    -0.06200
Cl262      Cl  0.99923201  0.28096287  0.50304265    -0.49200
C263        C  0.91675920  0.36205452  0.39508734     0.43300
H264        H  0.13051308  0.29880246  0.59772905     0.07500
N265        N  0.89616833  0.33174286  0.58445455    -0.45900
C266        C  0.12528647  0.80991017  0.42523590     0.43200
N267        N  0.06449726  0.79626072  0.46048440     0.02100
C268        C  0.04629624  0.63361376  0.59716835    -0.05800
H269        H  0.03469241  0.60093108  0.42041968     0.07500
C270        C  0.90273400  0.67852152  0.41911302    -0.06200
Co271      Co  0.08474429  0.72135047  0.51078376     0.74200
N272        N  0.05258843  0.64776688  0.46527345    -0.25300
Co273      Co  0.00007147  0.65041912  0.50918456     0.74100
C274        C  0.92240430  0.64358114  0.39755653     0.43300
N275        N  0.92947463  0.77040403  0.45254952     0.01700
N276        N  0.95401631  0.65133684  0.45869781     0.01800
N277        N  0.09961334  0.68195825  0.59630622    -0.46200
H278        H  0.15730779  0.74920381  0.44262891     0.07500
N279        N  0.08470241  0.67506860  0.46541206     0.02100
N280        N  0.94707939  0.65574656  0.55280543     0.01800
C281        C  0.90486952  0.65144425  0.60847113     0.43400
N282        N  0.95945833  0.79982913  0.45307121    -0.24800
C283        C  0.11600404  0.77661989  0.58315446    -0.05700
N284        N  0.08486820  0.82538500  0.43846707    -0.45900
N285        N  0.94068946  0.63463685  0.58815600    -0.46100
C286        C  0.10674013  0.81747123  0.59764827     0.43200
N287        N  0.07806598  0.67995048  0.55955471     0.02100
N288        N  0.95226544  0.80388988  0.54489230    -0.24800
N289        N  0.09071490  0.76396154  0.46373330    -0.25300
N290        N  0.92221579  0.77452971  0.54401674     0.01700
H291        H  0.95208519  0.86175970  0.57761521     0.07600
H292        H  0.86216031  0.70619643  0.58720381     0.07600
N293        N  0.04607069  0.65253500  0.55933716    -0.25400
N294        N  0.92508808  0.68152413  0.45589749    -0.25000
N295        N  0.05636428  0.79997473  0.55176157     0.02100
C296        C  0.09559548  0.64146457  0.40748529     0.43500
C297        C  0.94723883  0.82691847  0.42289822    -0.06200
N298        N  0.91801111  0.68571295  0.54895335    -0.25000
H299        H  0.87797693  0.69986077  0.40745291     0.07600
N300        N  0.11085322  0.67268286  0.43115706    -0.46200
H301        H  0.96316566  0.85576041  0.41754825     0.07600
C302        C  0.89302292  0.81722793  0.58779332     0.43300
C303        C  0.12829286  0.76915073  0.44144811    -0.05700
Co304      Co  0.00813832  0.80124745  0.50241718     0.73800
N305        N  0.89789535  0.77554832  0.42369178    -0.45900
C306        C  0.08147783  0.65375038  0.62177494     0.43600
N307        N  0.07008541  0.83072137  0.57577130    -0.45900
Co308      Co  0.92323957  0.72788522  0.50032876     0.73900
C309        C  0.88935551  0.68489507  0.58190174    -0.06200
C310        C  0.05722531  0.62468646  0.43031782    -0.05800
N311        N  0.08398721  0.76857376  0.55460473    -0.25300
N312        N  0.95394548  0.62811496  0.42409162    -0.46100
H313        H  0.02231699  0.61125011  0.60755763     0.07600
C314        C  0.93643204  0.83285799  0.57173798    -0.06200
Cl315      Cl  0.00405414  0.72570808  0.50564545    -0.49200
C316        C  0.90619981  0.81008527  0.40304836     0.43300
H317        H  0.14572017  0.75824517  0.58868612     0.07500
N318        N  0.88710359  0.78141597  0.56871471    -0.45900
C319        C  0.80521379  0.89155744  0.63115076    -0.27500
C320        C  0.77499752  0.86464627  0.65075011     0.06100
C321        C  0.78565954  0.82333292  0.65136512     0.25700
C322        C  0.82544705  0.80924646  0.63280387    -0.12000
C323        C  0.85576821  0.83569825  0.61288535    -0.25900
C324        C  0.84554164  0.87725447  0.61242595     0.36500
C325        C  0.73242510  0.87903680  0.67088225     0.06100
F326        F  0.75663223  0.79625122  0.66848838    -0.19700
H327        H  0.83185660  0.77703497  0.63281388     0.16000
F328        F  0.87302973  0.90358572  0.59215645    -0.23400
H329        H  0.79742440  0.92355359  0.63021781     0.17700
C330        C  0.72352186  0.87029773  0.71385063     0.25700
C331        C  0.68281857  0.88232748  0.73258849    -0.12000
C332        C  0.64983714  0.90300848  0.70896522    -0.26000
C333        C  0.65848743  0.91161388  0.66580348     0.36700
C334        C  0.69960869  0.89979804  0.64704697    -0.27600
F335        F  0.75474252  0.85088012  0.73802537    -0.19700
H336        H  0.67730013  0.87600855  0.76603563     0.15900
F337        F  0.62837649  0.93300276  0.64229897    -0.23400
H338        H  0.70580441  0.90668758  0.61385226     0.17800
C339        C  0.19577324  0.85532758  0.67203614    -0.27500
C340        C  0.22826988  0.86997625  0.64328369     0.06100
C341        C  0.21659239  0.87322262  0.59990697     0.25700
C342        C  0.17428728  0.86001263  0.58569177    -0.12000
C343        C  0.14317065  0.84313917  0.61426538    -0.25900
C344        C  0.15394558  0.84155690  0.65766454     0.36500
C345        C  0.27481458  0.87855486  0.65889550     0.06100
F346        F  0.24721293  0.88582347  0.57072193    -0.19700
H347        H  0.16717628  0.86002517  0.55184182     0.16000
F348        F  0.12522684  0.82411827  0.68574660    -0.23400
H349        H  0.20357098  0.85288271  0.70562927     0.17700
C350        C  0.29754944  0.91456229  0.64870147     0.25700
C351        C  0.33927462  0.92332785  0.66760119    -0.12000
C352        C  0.35858931  0.89673863  0.69732262    -0.26000
C353        C  0.33685622  0.86026213  0.70625914     0.36700
C354        C  0.29581295  0.85104977  0.68677265    -0.27600
F355        F  0.27796544  0.94272263  0.62329995    -0.19700
H356        H  0.35479631  0.95229117  0.66151073     0.15900
F357        F  0.35417287  0.83452582  0.73566844    -0.23400
H358        H  0.27948097  0.82289626  0.69479134     0.17800
C359        C  0.76260130  0.16328940  0.60509942    -0.27500
C360        C  0.76612310  0.13795787  0.64055945     0.06100
C361        C  0.80955948  0.12805043  0.65600077     0.25700
C362        C  0.84831683  0.14508837  0.63748735    -0.12000
C363        C  0.84431209  0.17227107  0.60349017    -0.25900
C364        C  0.80094334  0.18021537  0.58672901     0.36500
C365        C  0.72405008  0.12402652  0.66197666     0.06100
F366        F  0.81449130  0.10221178  0.68915635    -0.19700
H367        H  0.88119552  0.13832813  0.65077119     0.16000
F368        F  0.79520949  0.20489431  0.55269851    -0.23400
H369        H  0.72976718  0.17119048  0.59237795     0.17700
C370        C  0.71759624  0.13022131  0.70586861     0.25700
C371        C  0.67734135  0.11860506  0.72547149    -0.12000
C372        C  0.64227662  0.10069342  0.70200794    -0.26000
C373        C  0.64812366  0.09543314  0.65779786     0.36700
C374        C  0.68859503  0.10712771  0.63810387    -0.27600
F375        F  0.74976861  0.14844332  0.72976290    -0.19700
H376        H  0.67377737  0.12327109  0.75949303     0.15900
F377        F  0.61579502  0.07769117  0.63376871    -0.23400
H378        H  0.69254784  0.10244186  0.60413370     0.17800
C379        C  0.18092285  0.10098447  0.62342320    -0.27500
C380        C  0.21618142  0.12348723  0.64159655     0.06100
C381        C  0.20987156  0.16503958  0.64847980     0.25700
C382        C  0.17033115  0.18410552  0.63519406    -0.12000
C383        C  0.13598477  0.16234032  0.61478959    -0.25900
C384        C  0.14102327  0.12022737  0.60994523     0.36500
C385        C  0.25923294  0.10413372  0.65467136     0.06100
F386        F  0.24212287  0.18730947  0.66808057    -0.19700
H387        H  0.16715129  0.21647607  0.63970248     0.16000
F388        F  0.10890301  0.09804524  0.59014874    -0.23400
H389        H  0.18492718  0.06876599  0.61842779     0.17700
C390        C  0.25923574  0.07282535  0.68458056     0.25700
C391        C  0.29968445  0.06025214  0.70306747    -0.12000
C392        C  0.34086228  0.07898915  0.69266724    -0.26000
C393        C  0.34147623  0.10756722  0.65988131     0.36700
C394        C  0.30081678  0.12013765  0.64111404    -0.27600
F395        F  0.21989189  0.05682394  0.69868152    -0.19700
H396        H  0.29831394  0.03715405  0.72736485     0.15900
F397        F  0.38066476  0.12546484  0.64835759    -0.23400
H398        H  0.30148620  0.14391261  0.61750804     0.17800
C399        C  0.72955302  0.85792502  0.28411651    -0.27500
C400        C  0.74334583  0.87083204  0.32465549     0.06100
C401        C  0.71376125  0.89534366  0.34886378     0.25700
C402        C  0.67188670  0.90763839  0.33199371    -0.12000
C403        C  0.65904233  0.89572568  0.29076309    -0.25900
C404        C  0.68799583  0.86999571  0.26741962     0.36500
C405        C  0.78767721  0.85679405  0.34166052     0.06100
F406        F  0.72528173  0.90725391  0.38877411    -0.19700
H407        H  0.65048388  0.92785427  0.35035027     0.16000
F408        F  0.67655042  0.85724759  0.22774657    -0.23400
H409        H  0.75148005  0.83889486  0.26489972     0.17700
C410        C  0.79827257  0.81540125  0.34121685     0.25700
C411        C  0.83900016  0.80156158  0.35790507    -0.12000
C412        C  0.87013665  0.82826840  0.37638456    -0.26000
C413        C  0.86084979  0.86999638  0.37515667     0.36700
C414        C  0.81976577  0.88408031  0.35793462    -0.27600
F415        F  0.76805756  0.78789928  0.32683863    -0.19700
H416        H  0.84514306  0.76924887  0.35839325     0.15900
F417        F  0.88999355  0.89684757  0.39248111    -0.23400
H418        H  0.81265996  0.91621347  0.35789412     0.17800
C419        C  0.32900164  0.88302278  0.37430510    -0.27500
C420        C  0.28983404  0.87042884  0.35283959     0.06100
C421        C  0.29153023  0.86572873  0.30836526     0.25700
C422        C  0.33051427  0.87562702  0.28578510    -0.12000
C423        C  0.36896058  0.89029197  0.30680764    -0.25900
C424        C  0.36833083  0.89274250  0.35163467     0.36500
C425        C  0.24758910  0.86101713  0.37649294     0.06100
F426        F  0.25542182  0.85142106  0.28661161    -0.19700
H427        H  0.33014531  0.87290031  0.25138110     0.16000
F428        F  0.40458083  0.90631957  0.37358748    -0.23400
H429        H  0.32874089  0.88651362  0.40861648     0.17700
C430        C  0.24850187  0.83465194  0.41137629     0.25700
C431        C  0.20822902  0.82114627  0.42927044    -0.12000
C432        C  0.16602740  0.83288939  0.41248204    -0.26000
C433        C  0.16495332  0.86191804  0.38009651     0.36700
C434        C  0.20548924  0.87584997  0.36226916    -0.27600
F435        F  0.28811948  0.81939824  0.42614285    -0.19700
H436        H  0.21031921  0.79978465  0.45522885     0.15900
F437        F  0.12501408  0.87461505  0.36372432    -0.23400
H438        H  0.20398493  0.89703654  0.33609510     0.17800
C439        C  0.71163061  0.14786346  0.30594548    -0.27500
C440        C  0.72963342  0.12676557  0.34080084     0.06100
C441        C  0.70423136  0.09517474  0.35877063     0.25700
C442        C  0.66269108  0.08400640  0.34088492    -0.12000
C443        C  0.64594983  0.10407367  0.30483298    -0.25900
C444        C  0.67041318  0.13660955  0.28806169     0.36500
C445        C  0.77409594  0.13894249  0.35872869     0.06100
F446        F  0.72066373  0.07372536  0.39215360    -0.19700
H447        H  0.64500816  0.05816817  0.35360619     0.16000
F448        F  0.65498522  0.15675904  0.25336509    -0.23400
H449        H  0.72975279  0.17299697  0.29224580     0.17700
C450        C  0.81171325  0.14593306  0.33211008     0.25700
C451        C  0.85154054  0.16221643  0.34892188    -0.12000
C452        C  0.85455934  0.17144802  0.39240335    -0.26000
C453        C  0.81794897  0.16263869  0.41926871     0.36700
C454        C  0.77821568  0.14652428  0.40257065    -0.27600
F455        F  0.80963170  0.13785954  0.28973101    -0.19700
H456        H  0.87923609  0.16928048  0.32771429     0.15900
F457        F  0.81978624  0.17174753  0.46142973    -0.23400
H458        H  0.74980755  0.14187718  0.42369223     0.17800
C459        C  0.19165486  0.11346969  0.37126527    -0.27500
C460        C  0.22396406  0.13938149  0.35299653     0.06100
C461        C  0.21326972  0.18075984  0.34976239     0.25700
C462        C  0.17266425  0.19589131  0.36607241    -0.12000
C463        C  0.14138539  0.17056032  0.38627457    -0.25900
C464        C  0.15062083  0.12883588  0.38770398     0.36500
C465        C  0.26869295  0.12388700  0.33730411     0.06100
F466        F  0.24321218  0.20722199  0.33300661    -0.19700
H467        H  0.16653572  0.22817585  0.36458249     0.16000
F468        F  0.12149873  0.10332513  0.40709036    -0.23400
H469        H  0.19849447  0.08136952  0.37339031     0.17700
C470        C  0.29646738  0.09838199  0.36218660     0.25700
C471        C  0.33882664  0.08509228  0.34676966    -0.12000
C472        C  0.35402657  0.09683798  0.30626032    -0.26000
C473        C  0.32654278  0.12276521  0.28192386     0.36700
C474        C  0.28462257  0.13593820  0.29717731    -0.27600
F475        F  0.28271941  0.08633350  0.40135680    -0.19700
H476        H  0.35874242  0.06426951  0.36562399     0.15900
F477        F  0.33980701  0.13452246  0.24247650    -0.23400
H478        H  0.26404897  0.15504719  0.27698510     0.17800
C479        C  0.60072293  0.80202554  0.04840037    -0.27500
C480        C  0.62474193  0.78240800  0.08103384     0.06100
C481        C  0.64420998  0.80589607  0.11347625     0.25700
C482        C  0.63764051  0.84761278  0.11443430    -0.12000
C483        C  0.61095087  0.86693162  0.08360223    -0.25900
C484        C  0.59380155  0.84389353  0.04958755     0.36500
C485        C  0.62663210  0.73758714  0.08330033     0.06100
F486        F  0.66694774  0.78834792  0.14609441    -0.19700
H487        H  0.65155242  0.86447939  0.14089400     0.16000
F488        F  0.56914640  0.86138278  0.01828690    -0.23400
H489        H  0.58625098  0.78478863  0.02255119     0.17700
C490        C  0.58727770  0.71458331  0.07823882     0.25700
C491        C  0.58822973  0.67295014  0.08434000    -0.12000
C492        C  0.62847644  0.65304207  0.09509858    -0.26000
C493        C  0.66812291  0.67577248  0.09987483     0.36700
C494        C  0.66711600  0.71760716  0.09374286    -0.27600
F495        F  0.54747819  0.73226001  0.06827821    -0.19700
H496        H  0.55726356  0.65617406  0.08030252     0.15900
F497        F  0.70810779  0.65763533  0.10907574    -0.23400
H498        H  0.69814224  0.73442134  0.09701908     0.17800
C499        C  0.64516577  0.29750912  0.10611964    -0.27500
C500        C  0.60201004  0.28136960  0.11218529     0.06100
C501        C  0.56525953  0.30754911  0.11942146     0.25700
C502        C  0.57127183  0.34932617  0.11774992    -0.12000
C503        C  0.61426401  0.36530381  0.11063187    -0.25900
C504        C  0.65143544  0.33916011  0.10570037     0.36500
C505        C  0.59609268  0.23721215  0.11050799     0.06100
F506        F  0.52394903  0.29270264  0.12889340    -0.19700
H507        H  0.54245750  0.36925078  0.12195215     0.16000
F508        F  0.69335143  0.35376657  0.09802084    -0.23400
H509        H  0.67390739  0.27776955  0.10062430     0.17700
C510        C  0.56464048  0.21950075  0.08282179     0.25700
C511        C  0.56121787  0.17753128  0.08008817    -0.12000
C512        C  0.58882123  0.15260032  0.10524665    -0.26000
C513        C  0.62045117  0.17054763  0.13283464     0.36700
C514        C  0.62397067  0.21240478  0.13524778    -0.27600
F515        F  0.53777821  0.24271984  0.05793423    -0.19700
H516        H  0.53661586  0.16475122  0.05858268     0.15900
F517        F  0.64776171  0.14786191  0.15799389    -0.23400
H518        H  0.64841138  0.22556306  0.15675720     0.17800
C519        C  0.57337510  0.71220240  0.96000888    -0.27500
C520        C  0.59841074  0.73500694  0.93080070     0.06100
C521        C  0.62702984  0.71485384  0.90184057     0.25700
C522        C  0.63120572  0.67287382  0.90279961    -0.12000
C523        C  0.60702011  0.65002134  0.93259965    -0.25900
C524        C  0.57746862  0.67014324  0.96096164     0.36500
C525        C  0.59423163  0.77962712  0.92999867     0.06100
F526        F  0.65044644  0.73568068  0.87200756    -0.19700
H527        H  0.65381416  0.65845353  0.88025843     0.16000
F528        F  0.55286273  0.64944585  0.98999364    -0.23400
H529        H  0.55096193  0.72699193  0.98250709     0.17700
C530        C  0.55158421  0.79847930  0.92962125     0.25700
C531        C  0.54805538  0.84033924  0.92588513    -0.12000
C532        C  0.58691289  0.86403275  0.92194161    -0.26000
C533        C  0.62952786  0.84555302  0.92352016     0.36700
C534        C  0.63311600  0.80368336  0.92802326    -0.27600
F535        F  0.51330117  0.77637748  0.93061644    -0.19700
H536        H  0.51482998  0.85408535  0.92438258     0.15900
F537        F  0.66756434  0.86799083  0.92070656    -0.23400
H538        H  0.66633642  0.78993745  0.92936395     0.17800
C539        C  0.57973660  0.21303519  0.95211638    -0.27500
C540        C  0.56621694  0.23717416  0.91751498     0.06100
C541        C  0.55169993  0.21819228  0.87976766     0.25700
C542        C  0.55328671  0.17613691  0.87605428    -0.12000
C543        C  0.56831567  0.15237181  0.91013689    -0.25900
C544        C  0.58028502  0.17089947  0.94862990     0.36500
C545        C  0.57143297  0.28172885  0.91968071     0.06100
F546        F  0.53617804  0.24028728  0.84644559    -0.19700
H547        H  0.54267436  0.16203563  0.84655323     0.16000
F548        F  0.59436273  0.14830653  0.98212308    -0.23400
H549        H  0.59157072  0.22679970  0.98134247     0.17700
C550        C  0.55782933  0.30391658  0.95583224     0.25700
C551        C  0.56767376  0.34499339  0.95919268    -0.12000
C552        C  0.59168966  0.36473412  0.92682881    -0.26000
C553        C  0.60334161  0.34306897  0.88974551     0.36700
C554        C  0.59345302  0.30198709  0.88641923    -0.27600
F555        F  0.53540523  0.28590697  0.98816326    -0.19700
H556        H  0.55783704  0.36098030  0.98794743     0.15900
F557        F  0.62480556  0.36118887  0.85683828    -0.23400
H558        H  0.60467239  0.28564046  0.85835622     0.17800
C559        C  0.86446932  0.66841845  0.72208168    -0.27500
C560        C  0.87321808  0.63086464  0.74094175     0.06100
C561        C  0.89259608  0.59987005  0.71589257     0.25700
C562        C  0.90289951  0.60670012  0.67283470    -0.12000
C563        C  0.89338064  0.64421735  0.65387627    -0.25900
C564        C  0.87429133  0.67513434  0.67924068     0.36500
C565        C  0.85799890  0.62368176  0.78542345     0.06100
F566        F  0.89975911  0.56256134  0.73245914    -0.19700
H567        H  0.91759041  0.58241742  0.65408427     0.16000
F568        F  0.86610566  0.71244012  0.66336081    -0.23400
H569        H  0.84972183  0.69277720  0.74070038     0.17700
C570        C  0.88641599  0.60644805  0.81650634     0.25700
C571        C  0.86929619  0.59684825  0.85702871    -0.12000
C572        C  0.82379031  0.60460125  0.86697329    -0.26000
C573        C  0.79661245  0.62459268  0.83685879     0.36700
C574        C  0.81351302  0.63380458  0.79664156    -0.27600
F575        F  0.93041070  0.59854084  0.80753745    -0.19700
H576        H  0.89090124  0.58153898  0.87967399     0.15900
F577        F  0.75278519  0.63357740  0.84563046    -0.23400
H578        H  0.79108854  0.64751494  0.77353829     0.17800
C579        C  0.91288195  0.66280647  0.27923913    -0.27500
C580        C  0.90859722  0.62356701  0.26274281     0.06100
C581        C  0.91475337  0.59050929  0.29045799     0.25700
C582        C  0.92137952  0.59701971  0.33427470    -0.12000
C583        C  0.92126412  0.63639814  0.35101040    -0.25900
C584        C  0.91859254  0.66928727  0.32279930     0.36500
C585        C  0.89109426  0.61799658  0.21863035     0.06100
F586        F  0.91115553  0.55203655  0.27583384    -0.19700
H587        H  0.92416077  0.57131734  0.35539246     0.16000
F588        F  0.92091386  0.70792410  0.33722841    -0.23400
H589        H  0.90963161  0.68872791  0.25847130     0.17700
C590        C  0.85202864  0.63919429  0.20598024     0.25700
C591        C  0.83130717  0.63048846  0.16724513    -0.12000
C592        C  0.84871623  0.60057385  0.14001540    -0.26000
C593        C  0.88952729  0.58122593  0.15091349     0.36700
C594        C  0.91044348  0.58983399  0.19011770    -0.27600
F595        F  0.83149607  0.66601232  0.23262503    -0.19700
H596        H  0.79962576  0.64535480  0.15974578     0.15900
F597        F  0.90709253  0.55179111  0.12554253    -0.23400
H598        H  0.94077631  0.57347454  0.19888504     0.17800
C599        C  0.81507384  0.36908153  0.79667376    -0.27500
C600        C  0.86050733  0.37740907  0.78767538     0.06100
C601        C  0.88762984  0.39356103  0.82043733     0.25700
C602        C  0.86867301  0.40328996  0.86028908    -0.12000
C603        C  0.82252754  0.39699550  0.86800800    -0.25900
C604        C  0.79642058  0.37832483  0.83633763     0.36500
C605        C  0.87758814  0.37177108  0.74325657     0.06100
F606        F  0.93208588  0.40081836  0.81366310    -0.19700
H607        H  0.88949887  0.41771688  0.88413448     0.16000
F608        F  0.75196420  0.37087659  0.84298992    -0.23400
H609        H  0.79308854  0.35720404  0.77220783     0.17700
C610        C  0.86579925  0.33739022  0.71925746     0.25700
C611        C  0.87697717  0.33464787  0.67604414    -0.12000
C612        C  0.90089378  0.36563768  0.65568030    -0.26000
C613        C  0.91391133  0.39953268  0.67988041     0.36700
C614        C  0.90211831  0.40255967  0.72308804    -0.27600
F615        F  0.84350930  0.30622473  0.73758219    -0.19700
H616        H  0.86710935  0.30787112  0.65854408     0.15900
F617        F  0.93653504  0.43049952  0.66166575    -0.23400
H618        H  0.91083286  0.42976647  0.74038122     0.17800
C619        C  0.85348517  0.35965070  0.29029461    -0.27500
C620        C  0.88677774  0.37122808  0.26079536     0.06100
C621        C  0.93021437  0.38044357  0.27626061     0.25700
C622        C  0.93952163  0.37862443  0.32003333    -0.12000
C623        C  0.90619352  0.36659845  0.34917509    -0.25900
C624        C  0.86320399  0.35659382  0.33372165     0.36500
C625        C  0.87471907  0.37598378  0.21480898     0.06100
F626        F  0.96405527  0.39026880  0.24909757    -0.19700
H627        H  0.97325700  0.38553122  0.33093928     0.16000
F628        F  0.83015376  0.34448776  0.36071800    -0.23400
H629        H  0.81936763  0.35360597  0.27994683     0.17700
C630        C  0.84464538  0.34911885  0.19460126     0.25700
C631        C  0.82618770  0.35862961  0.15486183    -0.12000
C632        C  0.83860011  0.39409151  0.13378250    -0.26000
C633        C  0.87197101  0.41877088  0.15163949     0.36700
C634        C  0.88938286  0.41005498  0.19200264    -0.27600
F635        F  0.83138503  0.31458544  0.21401780    -0.19700
H636        H  0.80009158  0.33952824  0.14169354     0.15900
F637        F  0.88390016  0.45374812  0.13230528    -0.23400
H638        H  0.91181099  0.43173076  0.20657503     0.17800
C639        C  0.36882914  0.79495796  0.88391288    -0.27500
C640        C  0.38844976  0.77375938  0.91783016     0.06100
C641        C  0.41024423  0.79568369  0.95024093     0.25700
C642        C  0.41382819  0.83766597  0.94771683    -0.12000
C643        C  0.39537027  0.85863102  0.91304021    -0.25900
C644        C  0.37156591  0.83689833  0.88173407     0.36500
C645        C  0.38656586  0.72895566  0.91829058     0.06100
F646        F  0.42809567  0.77670503  0.98439216    -0.19700
H647        H  0.43168413  0.85358364  0.97264529     0.16000
F648        F  0.35225049  0.85577716  0.84800038    -0.23400
H649        H  0.35223168  0.77891985  0.85828403     0.17700
C650        C  0.34604316  0.70880480  0.90906618     0.25700
C651        C  0.34482822  0.66668024  0.90797236    -0.12000
C652        C  0.38374071  0.64377695  0.91663060    -0.26000
C653        C  0.42443625  0.66374630  0.92514915     0.36700
C654        C  0.42573643  0.70594887  0.92596060    -0.27600
F655        F  0.30718609  0.72979038  0.90249877    -0.19700
H656        H  0.31290058  0.65199269  0.90192795     0.15900
F657        F  0.46300797  0.64250966  0.93226316    -0.23400
H658        H  0.45753792  0.72057431  0.93218439     0.17800
C659        C  0.36217638  0.29644523  0.87482004    -0.27500
C660        C  0.39513522  0.27512828  0.89767265     0.06100
C661        C  0.42634887  0.29645619  0.92241387     0.25700
C662        C  0.42237673  0.33822583  0.92697853    -0.12000
C663        C  0.38695640  0.35937324  0.90707634    -0.25900
C664        C  0.35800067  0.33830295  0.87939304     0.36500
C665        C  0.39502850  0.23060336  0.89785012     0.06100
F666        F  0.45978009  0.27656445  0.94316948    -0.19700
H667        H  0.44612594  0.35357934  0.94743537     0.16000
F668        F  0.32424724  0.35763226  0.85840983    -0.23400
H669        H  0.33821911  0.28040867  0.85509332     0.17700
C670        C  0.39253156  0.20949839  0.93656567     0.25700
C671        C  0.39308799  0.16735081  0.93680280    -0.12000
C672        C  0.39454186  0.14576238  0.89837441    -0.26000
C673        C  0.39597955  0.16687475  0.85953625     0.36700
C674        C  0.39632209  0.20902860  0.85941023    -0.27600
F675        F  0.38824921  0.22977409  0.97397851    -0.19700
H676        H  0.39209920  0.15153020  0.96695049     0.15900
F677        F  0.39913789  0.14687537  0.82181306    -0.23400
H678        H  0.39825919  0.22488192  0.82933900     0.17800
C679        C  0.38772021  0.70792385  0.12533395    -0.27500
C680        C  0.41091268  0.72622807  0.09152403     0.06100
C681        C  0.43127553  0.70146901  0.06031720     0.25700
C682        C  0.42448004  0.65982319  0.06078992    -0.12000
C683        C  0.39800057  0.64195206  0.09267217    -0.25900
C684        C  0.38142346  0.66619229  0.12612562     0.36500
C685        C  0.41241272  0.77093949  0.08894551     0.06100
F686        F  0.45626580  0.71729763  0.02838299    -0.19700
H687        H  0.43860666  0.64180908  0.03510858     0.16000
F688        F  0.35870409  0.64990449  0.15935609    -0.23400
H689        H  0.37378281  0.72613278  0.15096256     0.17700
C690        C  0.37303992  0.79420044  0.09549694     0.25700
C691        C  0.37527085  0.83628544  0.09663004    -0.12000
C692        C  0.41647239  0.85592735  0.09051123    -0.26000
C693        C  0.45546931  0.83290897  0.08222876     0.36700
C694        C  0.45329258  0.79083501  0.08158666    -0.27600
F695        F  0.33243625  0.77626280  0.10119636    -0.19700
H696        H  0.34487011  0.85359989  0.10314528     0.15900
F697        F  0.49621630  0.85080748  0.07807907    -0.23400
H698        H  0.48400888  0.77384754  0.07710252     0.17800
C699        C  0.36102979  0.20574790  0.12073654    -0.27500
C700        C  0.38851720  0.22722411  0.09231951     0.06100
C701        C  0.41973720  0.20548796  0.06706753     0.25700
C702        C  0.42377005  0.16358688  0.07113709    -0.12000
C703        C  0.39671924  0.14233393  0.10015364    -0.25900
C704        C  0.36419580  0.16385801  0.12396058     0.36500
C705        C  0.38475226  0.27204405  0.09023291     0.06100
F706        F  0.44639536  0.22447444  0.03834809    -0.19700
H707        H  0.44877876  0.14786831  0.05198358     0.16000
F708        F  0.33544818  0.14493294  0.15076259    -0.23400
H709        H  0.33743564  0.22141606  0.14142552     0.17700
C710        C  0.34237405  0.29143841  0.09336979     0.25700
C711        C  0.33943551  0.33342026  0.09444947    -0.12000
C712        C  0.37829839  0.35704413  0.09088048    -0.26000
C713        C  0.42045444  0.33813299  0.08618643     0.36700
C714        C  0.42364344  0.29599298  0.08656936    -0.27600
F715        F  0.30348179  0.27002794  0.09395301    -0.19700
H716        H  0.30637499  0.34743652  0.09648429     0.15900
F717        F  0.45848453  0.36038636  0.08178556    -0.23400
H718        H  0.45663705  0.28216363  0.08436350     0.17800
C719        C  0.10204166  0.62339830  0.83177447    -0.27500
C720        C  0.12735278  0.64177087  0.79929751     0.06100
C721        C  0.17278440  0.65127375  0.80700825     0.25700
C722        C  0.19309535  0.64005738  0.84512832    -0.12000
C723        C  0.16913185  0.61820669  0.87587405    -0.25900
C724        C  0.12277070  0.61149838  0.86988176     0.36500
C725        C  0.10864272  0.64682389  0.75586659     0.06100
F726        F  0.19888968  0.66781847  0.77614085    -0.19700
H727        H  0.22880257  0.64574037  0.84917971     0.16000
F728        F  0.09854140  0.59034989  0.89884218    -0.23400
H729        H  0.06684072  0.61629413  0.82665748     0.17700
C730        C  0.08937513  0.61385272  0.73420316     0.25700
C731        C  0.07936606  0.61665291  0.69078241    -0.12000
C732        C  0.08883580  0.65209136  0.66822989    -0.26000
C733        C  0.10572889  0.68581276  0.69043844     0.36700
C734        C  0.11525161  0.68313637  0.73385686    -0.27600
F735        F  0.08298696  0.57806968  0.75422959    -0.19700
H736        H  0.06598958  0.59049604  0.67441605     0.15900
F737        F  0.11327206  0.72138331  0.67032429    -0.23400
H738        H  0.12924404  0.70912667  0.75008199     0.17800
C739        C  0.15980718  0.63772767  0.30309897    -0.27500
C740        C  0.12562269  0.62796245  0.27378970     0.06100
C741        C  0.08152829  0.62182252  0.28917509     0.25700
C742        C  0.07215742  0.62539862  0.33277478    -0.12000
C743        C  0.10632449  0.63570197  0.36181249    -0.25900
C744        C  0.15021069  0.64205981  0.34654319     0.36500
C745        C  0.13674832  0.62298728  0.22771493     0.06100
F746        F  0.04722262  0.61341823  0.26201007    -0.23300
H747        H  0.03781669  0.62112319  0.34362635     0.16000
F748        F  0.18403815  0.65165229  0.37377995    -0.23400
H749        H  0.19426722  0.64156532  0.29243307     0.17700
C750        C  0.16523758  0.65051972  0.20676856     0.25700
C751        C  0.18027821  0.64266259  0.16525374    -0.12000
C752        C  0.16638184  0.60789608  0.14347428    -0.26000
C753        C  0.13607989  0.58145369  0.16333733     0.36700
C754        C  0.12152174  0.58893351  0.20509312    -0.27600
F755        F  0.17967097  0.68443033  0.22685315    -0.19700
H756        H  0.20454942  0.66277589  0.15079560     0.15900
F757        F  0.12401884  0.54643527  0.14392449    -0.23400
H758        H  0.10041369  0.56678321  0.22056795     0.17800
C759        C  0.10748102  0.42158602  0.81080810    -0.27500
C760        C  0.11816252  0.38378122  0.79263351     0.06100
C761        C  0.14287153  0.35574037  0.81715424     0.25700
C762        C  0.16055210  0.36697450  0.85674340    -0.12000
C763        C  0.15280253  0.40577749  0.87326573    -0.25900
C764        C  0.12450636  0.43250681  0.85086899     0.36500
C765        C  0.10918912  0.37594917  0.74655996     0.06100
F766        F  0.15198560  0.31815426  0.80183595    -0.19700
H767        H  0.18257379  0.34612668  0.87341151     0.16000
F768        F  0.11718499  0.47059497  0.86561755    -0.23400
H769        H  0.08887327  0.44389478  0.79267006     0.17700
C770        C  0.06735716  0.38525730  0.72755379     0.25700
C771        C  0.06116255  0.37978551  0.68356950    -0.12000
C772        C  0.09627180  0.36449534  0.65784355    -0.26000
C773        C  0.13800509  0.35532619  0.67682453     0.36700
C774        C  0.14433563  0.36124759  0.72050249    -0.27600
F775        F  0.03218371  0.39872353  0.75155375    -0.19700
H776        H  0.02850260  0.38656457  0.66980476     0.15900
F777        F  0.17321459  0.34157121  0.65305091    -0.23400
H778        H  0.17730763  0.35503138  0.73386990     0.17800
C779        C  0.09864266  0.40599263  0.29020561    -0.27500
C780        C  0.10971958  0.37295806  0.26369964     0.06100
C781        C  0.11231071  0.33417506  0.28181558     0.25700
C782        C  0.10625375  0.32902093  0.32558797    -0.12000
C783        C  0.09662723  0.36218908  0.35221679    -0.25900
C784        C  0.09163259  0.40064122  0.33399010     0.36500
C785        C  0.12340404  0.37972592  0.21861861     0.06100
F786        F  0.12096238  0.30118486  0.25723459    -0.19700
H787        H  0.10889045  0.29883531  0.33856962     0.16000
F788        F  0.08198915  0.43328072  0.35874397    -0.23400
H789        H  0.09714587  0.43627954  0.27734448     0.17700
C790        C  0.09941395  0.40632846  0.19177540     0.25700
C791        C  0.11733208  0.41725224  0.15204060    -0.12000
C792        C  0.15933301  0.40186716  0.13875332    -0.26000
C793        C  0.18146306  0.37309706  0.16404867     0.36700
C794        C  0.16373607  0.36223962  0.20352600    -0.27600
F795        F  0.05963847  0.42291875  0.20463318    -0.19700
H796        H  0.10000545  0.43982635  0.13314344     0.15900
F797        F  0.22188023  0.35741481  0.15168016    -0.23400
H798        H  0.18324036  0.34204352  0.22347214     0.17800
loop_ 
_geom_bond_atom_site_label_1 
_geom_bond_atom_site_label_2 
_geom_bond_distance 
_geom_bond_site_symmetry_2 
_ccdc_geom_bond_type 
C1           N19   1.348       .  A
C1           C38   1.458       .  S
C1          C712   1.466       .  S
N2           N19   1.323       .  A
N2           N24   1.317       .  A
N2          Co39   2.073       .  S
C3           N28   1.347       .  A
C3           C41   1.471       .  S
C3           H48   1.081       .  S
H4           C45   1.081       .  S
C5           N29   1.336       .  A
C5            C9   1.454       .  S
C5           H34   1.082       .  S
Co6          N24   2.075       .  S
Co6          N14   2.085       .  S
Co6          N46   2.080       .  S
Co6          N22   2.071       .  S
Co6         Cl50   2.414       .  S
N7           C45   1.347       .  A
N7           N14   1.322       .  A
N7           Co8   2.094       .  S
Co8          N11   2.107   1_554  S
Co8          N28   2.102       .  S
Co8          N15   2.096   1_554  S
Co8         Cl50   2.492       .  S
C9           N47   1.356       .  A
C9          C763   1.475       .  S
N10          N17   1.317       .  A
N10          N40   1.325       .  A
N10         Co43   2.087       .  S
N11          N29   1.322       .  A
N11          N47   1.330       .  A
N12          C41   1.343       .  A
N12          N22   1.319       .  A
H13          C38   1.081       .  S
N14          N35   1.320       .  A
N15          N33   1.320       .  A
N15          N20   1.329       .  A
C16          N20   1.356       .  A
C16          C44   1.452       .  S
C16         C723   1.475       .  S
N17          C32   1.336       .  A
N17         Co39   2.067   1_556  S
C18          N46   1.340       .  A
C18          C21   1.464       .  S
C18          H52   1.080       .  S
C21          N42   1.348       .  A
C21         C683   1.477       .  S
N22          N28   1.320       .  A
N23          C49   1.339       .  A
N23          N25   1.317       .  A
N23         Co39   2.073   1_556  S
N24          C38   1.336       .  A
N25          N53   1.323       .  A
N25         Co43   2.085       .  S
H26          C49   1.080       .  S
H27          C44   1.082       .  S
N29         Co43   2.080       .  S
N30          N42   1.321       .  A
N30          N46   1.316       .  A
N30         Co39   2.070       .  S
C31          N35   1.345       .  A
C31          C45   1.467       .  S
C31         C792   1.473       .  S
C32          C51   1.459       .  S
C32          H36   1.081       .  S
N33          C44   1.330       .  A
N33         Co43   2.069       .  S
C37          N53   1.351       .  A
C37          C49   1.459       .  S
C37         C652   1.474       .  S
Co39        Cl50   2.481       .  S
N40          C51   1.353       .  A
C41         C752   1.470       .  S
Co43        Cl50   2.415   1_556  S
C51         C663   1.478       .  S
C54          N72   1.356       .  A
C54          C91   1.453       .  S
C54         C632   1.469       .  S
N55          N72   1.328       .  A
N55          N77   1.321       .  A
N55         Co92   2.100       .  S
C56          N81   1.334       .  A
C56          C94   1.455       .  S
C56         H101   1.079       .  S
H57          C98   1.081       .  S
C58          N82   1.340       .  A
C58          C62   1.464       .  S
C58          H87   1.080       .  S
Co59         N77   2.077       .  S
Co59         N67   2.082       .  S
Co59         N99   2.070       .  S
Co59         N75   2.086       .  S
Co59       Cl103   2.407       .  S
N60          C98   1.338       .  A
N60          N67   1.316       .  A
N60         Co61   2.062       .  S
Co61         N64   2.074   1_554  S
Co61         N81   2.067       .  S
Co61         N68   2.074   1_554  S
Co61       Cl103   2.490       .  S
C62         N100   1.350       .  A
C62         C552   1.479       .  S
N63          N70   1.321       .  A
N63          N93   1.319       .  A
N63         Co96   2.078       .  S
N64          N82   1.317       .  A
N64         N100   1.323       .  A
N65          C94   1.353       .  A
N65          N75   1.325       .  A
H66          C91   1.082       .  S
N67          N88   1.323       .  A
N68          N86   1.316       .  A
N68          N73   1.322       .  A
C69          N73   1.348       .  A
C69          C97   1.463       .  S
C69         C523   1.480       .  S
N70          C85   1.347       .  A
N70         Co92   2.095   1_556  S
C71          N99   1.332       .  A
C71          C74   1.450       .  S
C71         H105   1.082       .  S
C74          N95   1.358       .  A
C74         C592   1.479       .  S
N75          N81   1.316       .  A
N76         C102   1.351       .  A
N76          N78   1.323       .  A
N76         Co92   2.108   1_556  S
N77          C91   1.333       .  A
N78         N106   1.317       .  A
N78         Co96   2.077       .  S
H79         C102   1.081       .  S
H80          C97   1.080       .  S
N82         Co96   2.085       .  S
N83          N95   1.332       .  A
N83          N99   1.321       .  A
N83         Co92   2.108       .  S
C84          N88   1.349       .  A
C84          C98   1.455       .  S
C84         C503   1.463       .  S
C85         C104   1.469       .  S
C85          H89   1.081       .  S
N86          C97   1.340       .  A
N86         Co96   2.081       .  S
C90         N106   1.343       .  A
C90         C102   1.474       .  S
C90         C572   1.480       .  S
Co92       Cl103   2.495       .  S
N93         C104   1.346       .  A
C94         C492   1.475       .  S
Co96       Cl103   2.410   1_556  S
C104        C603   1.480       .  S
C107        N125   1.351       .  A
C107        C144   1.464       .  S
C107        C703   1.482       .  S
N108        N125   1.324       .  A
N108        N130   1.315       .  A
N108       Co145   2.077       .  S
C109        N134   1.346       .  A
C109        C147   1.473       .  S
C109        H154   1.081       .  S
H110        C151   1.081       .  S
C111        N135   1.333       .  A
C111        C115   1.449       .  S
C111        H140   1.082       .  S
Co112       N130   2.078   1_565  S
Co112       N120   2.063   1_565  S
Co112       N152   2.069       .  S
Co112       N128   2.082       .  S
Co112      Cl156   2.412   1_565  S
N113        C151   1.357       .  A
N113        N120   1.323       .  A
N113       Co114   2.137   1_545  S
Co114       N117   2.112   1_565  S
Co114       N134   2.101       .  S
Co114       N121   2.130       .  S
Co114      Cl156   2.499   1_565  S
C115        N153   1.359       .  A
C115        C443   1.478       .  S
N116        N123   1.316       .  A
N116        N146   1.319       .  A
N116       Co149   2.066       .  S
N117        N135   1.322       .  A
N117        N153   1.331       .  A
N118        C147   1.347       .  A
N118        N128   1.320       .  A
H119        C144   1.078       .  S
N120        N141   1.317       .  A
N121        N139   1.322       .  A
N121        N126   1.334       .  A
C122        N126   1.362       .  A
C122        C150   1.448       .  S
C122        C403   1.484       .  S
N123        C138   1.342       .  A
N123       Co145   2.080       .  S
C124        N152   1.336       .  A
C124        C127   1.454       .  S
C124        H158   1.081       .  S
C127        N148   1.351       .  A
C127        C692   1.469       .  S
N128        N134   1.322       .  A
N129        C155   1.341       .  A
N129        N131   1.315       .  A
N129       Co145   2.076   1_565  S
N130        C144   1.338       .  A
N131        N159   1.322       .  A
N131       Co149   2.078   1_565  S
H132        C155   1.080       .  S
H133        C150   1.082       .  S
N135       Co149   2.074       .  S
N136        N148   1.324       .  A
N136        N152   1.317       .  A
N136       Co145   2.082   1_565  S
C137        N141   1.339       .  A
C137        C151   1.481       .  S
C137        C472   1.486       .  S
C138        C157   1.464       .  S
C138        H142   1.080       .  S
N139        C150   1.331       .  A
N139       Co149   2.064   1_565  S
C143        N159   1.351       .  A
C143        C155   1.465       .  S
C143        C483   1.481       .  S
Co145      Cl156   2.490       .  S
N146        C157   1.346       .  A
C147        C423   1.486       .  S
Co149      Cl156   2.409       .  S
C157        C512   1.476       .  S
C160        N178   1.361       .  A
C160        C197   1.447       .  S
C160        C392   1.482       .  S
N161        N178   1.333       .  A
N161        N183   1.321       .  A
N161       Co198   2.116   1_545  S
C162        N187   1.342       .  A
C162        C200   1.464       .  S
C162        H207   1.081       .  S
H163        C204   1.081       .  S
C164        N188   1.341       .  A
C164        C168   1.458       .  S
C164        H193   1.081       .  S
Co165       N183   2.055   1_565  S
Co165       N173   2.077   1_565  S
Co165       N205   2.078       .  S
Co165       N181   2.070       .  S
Co165      Cl209   2.402   1_565  S
N166        C204   1.339       .  A
N166        N173   1.316       .  A
N166       Co167   2.070       .  S
Co167       N170   2.077       .  S
Co167       N187   2.078   1_545  S
Co167       N174   2.063   1_545  S
Co167      Cl209   2.491       .  S
C168        N206   1.347       .  A
C168        C543   1.467       .  S
N169        N176   1.323       .  A
N169        N199   1.319       .  A
N169       Co202   2.078       .  S
N170        N188   1.318       .  A
N170        N206   1.324       .  A
N171        C200   1.348       .  A
N171        N181   1.320       .  A
H172        C197   1.082       .  S
N173        N194   1.322       .  A
N174        N192   1.318       .  A
N174        N179   1.321       .  A
C175        N179   1.346       .  A
C175        C203   1.461       .  S
C175        C532   1.467       .  S
N176        C191   1.350       .  A
N176       Co198   2.111   1_545  S
C177        N205   1.335       .  A
C177        C180   1.453       .  S
C177        H211   1.082       .  S
C180        N201   1.356       .  A
C180        C352   1.474       .  S
N181        N187   1.315       .  A
N182        C208   1.348       .  A
N182        N184   1.323       .  A
N182       Co198   2.108       .  S
N183        C197   1.327       .  A
N184        N212   1.320       .  A
N184       Co202   2.077   1_565  S
H185        C208   1.081       .  S
H186        C203   1.081       .  S
N188       Co202   2.084       .  S
N189        N201   1.329       .  A
N189        N205   1.322       .  A
N189       Co198   2.103       .  S
C190        N194   1.349       .  A
C190        C204   1.456       .  S
C190        C672   1.468       .  S
C191        C210   1.476       .  S
C191        H195   1.081       .  S
N192        C203   1.342       .  A
N192       Co202   2.090   1_565  S
C196        N212   1.345       .  A
C196        C208   1.471       .  S
C196        C332   1.481       .  S
Co198      Cl209   2.498   1_565  S
N199        C210   1.345       .  A
C200        C643   1.477       .  S
Co202      Cl209   2.411       .  S
C210        C372   1.489       .  S
C213        N231   1.351       .  A
C213        C250   1.457       .  S
C213        C783   1.479       .  S
N214        N231   1.327       .  A
N214        N236   1.317       .  A
N214       Co251   2.088       .  S
C215        N240   1.349       .  A
C215        C253   1.473       .  S
C215        H260   1.081       .  S
H216        C257   1.081       .  S
C217        N241   1.334       .  A
C217        C221   1.453       .  S
C217        H246   1.082       .  S
Co218       N236   2.079       .  S
Co218       N226   2.071       .  S
Co218       N258   2.080       .  S
Co218       N234   2.075       .  S
Co218      Cl262   2.412   1_455  S
N219        C257   1.356       .  A
N219        N226   1.322       .  A
N219       Co220   2.126   1_455  S
Co220       N223   2.107       .  S
Co220       N240   2.107   1_655  S
Co220       N227   2.131       .  S
Co220      Cl262   2.498       .  S
C221        N259   1.357       .  A
C221        C452   1.475       .  S
N222        N229   1.317       .  A
N222        N252   1.324       .  A
N222       Co255   2.076       .  S
N223        N241   1.322       .  A
N223        N259   1.330       .  A
N224        C253   1.344       .  A
N224        N234   1.318       .  A
H225        C250   1.080       .  S
N226        N247   1.317       .  A
N227        N245   1.321       .  A
N227        N232   1.334       .  A
C228        N232   1.363       .  A
C228        C256   1.449       .  S
C228        C363   1.488       .  S
N229        C244   1.347       .  A
N229       Co251   2.097   1_655  S
C230        N258   1.340       .  A
C230        C233   1.459       .  S
C230        H264   1.081       .  S
C233        N254   1.353       .  A
C233        C772   1.483       .  S
N234        N240   1.323       .  A
N235        C261   1.345       .  A
N235        N237   1.316       .  A
N235       Co251   2.089   1_655  S
N236        C250   1.339       .  A
N237        N265   1.325       .  A
N237       Co255   2.085       .  S
H238        C261   1.080       .  S
H239        C256   1.082       .  S
N241       Co255   2.079       .  S
N242        N254   1.328       .  A
N242        N258   1.318       .  A
N242       Co251   2.096       .  S
C243        N247   1.341       .  A
C243        C257   1.479       .  S
C243        C463   1.488       .  S
C244        C263   1.464       .  S
C244        H248   1.080       .  S
N245        C256   1.330       .  A
N245       Co255   2.061       .  S
C249        N265   1.351       .  A
C249        C261   1.464       .  S
C249        C612   1.488       .  S
Co251      Cl262   2.489   1_455  S
N252        C263   1.348       .  A
C253        C383   1.481       .  S
Co255      Cl262   2.412       .  S
C263        C623   1.483       .  S
C266        N284   1.363       .  A
C266        C303   1.446       .  S
C266        C432   1.486       .  S
N267        N284   1.335       .  A
N267        N289   1.322       .  A
N267       Co304   2.130       .  S
C268        N293   1.345       .  A
C268        C306   1.462       .  S
C268        H313   1.080       .  S
H269        C310   1.080       .  S
C270        N294   1.336       .  A
C270        C274   1.456       .  S
C270        H299   1.080       .  S
Co271       N289   2.054       .  S
Co271       N279   2.088       .  S
Co271       N311   2.079       .  S
Co271       N287   2.068       .  S
Co271      Cl315   2.401       .  S
N272        C310   1.341       .  A
N272        N279   1.317       .  A
N272       Co273   2.079       .  S
Co273       N276   2.094   1_455  S
Co273       N293   2.086       .  S
Co273       N280   2.088   1_455  S
Co273      Cl315   2.499       .  S
C274        N312   1.353       .  A
C274        C583   1.480       .  S
N275        N282   1.323       .  A
N275        N305   1.314       .  A
N275       Co308   2.069       .  S
N276        N294   1.316       .  A
N276        N312   1.329       .  A
N277        C306   1.345       .  A
N277        N287   1.321       .  A
H278        C303   1.082       .  S
N279        N300   1.326       .  A
N280        N298   1.316       .  A
N280        N285   1.327       .  A
C281        N285   1.353       .  A
C281        C309   1.461       .  S
C281        C563   1.485       .  S
N282        C297   1.355       .  A
N282       Co304   2.119   1_655  S
C283        N311   1.334       .  A
C283        C286   1.450       .  S
C283        H317   1.082       .  S
C286        N307   1.358       .  A
C286        C343   1.473       .  S
N287        N293   1.317       .  A
N288        C314   1.355       .  A
N288        N290   1.323       .  A
N288       Co304   2.126   1_655  S
N289        C303   1.327       .  A
N290        N318   1.315       .  A
N290       Co308   2.061       .  S
H291        C314   1.081       .  S
H292        C309   1.080       .  S
N294       Co308   2.070       .  S
N295        N307   1.330       .  A
N295        N311   1.322       .  A
N295       Co304   2.110       .  S
C296        N300   1.351       .  A
C296        C310   1.457       .  S
C296        C743   1.479       .  S
C297        C316   1.479       .  S
C297        H301   1.081       .  S
N298        C309   1.338       .  A
N298       Co308   2.078       .  S
C302        N318   1.339       .  A
C302        C314   1.478       .  S
C302        C323   1.483       .  S
Co304      Cl315   2.507       .  S
N305        C316   1.340       .  A
C306        C732   1.476       .  S
Co308      Cl315   2.402   1_655  S
C316        C412   1.485       .  S
C319        H329   1.083       .  S
C319        C320   1.409       .  A
C319        C324   1.409       .  A
C320        C325   1.485       .  S
C320        C321   1.402       .  A
C321        C322   1.391       .  A
C321        F326   1.358       .  S
C322        H327   1.082       .  S
C322        C323   1.406       .  A
C323        C324   1.407       .  A
C324        F328   1.356       .  S
C325        C330   1.405       .  A
C325        C334   1.406       .  A
C330        C331   1.396       .  A
C330        F335   1.358       .  S
C331        H336   1.084       .  S
C331        C332   1.404       .  A
C332        C333   1.409       .  A
C333        C334   1.405       .  A
C333        F337   1.356       .  S
C334        H338   1.083       .  S
C339        H349   1.083       .  S
C339        C340   1.408       .  A
C339        C344   1.399       .  A
C340        C345   1.493       .  S
C340        C341   1.410       .  A
C341        C342   1.404       .  A
C341        F346   1.357       .  S
C342        H347   1.084       .  S
C342        C343   1.405       .  A
C343        C344   1.401       .  A
C344        F348   1.357       .  S
C345        C350   1.410       .  A
C345        C354   1.408       .  A
C350        C351   1.404       .  A
C350        F355   1.357       .  S
C351        H356   1.084       .  S
C351        C352   1.405       .  A
C352        C353   1.401       .  A
C353        C354   1.398       .  A
C353        F357   1.358       .  S
C354        H358   1.083       .  S
C359        H369   1.083       .  S
C359        C360   1.400       .  A
C359        C364   1.395       .  A
C360        C365   1.492       .  S
C360        C361   1.413       .  A
C361        C362   1.409       .  A
C361        F366   1.357       .  S
C362        H367   1.083       .  S
C362        C363   1.403       .  A
C363        C364   1.413       .  A
C364        F368   1.357       .  S
C365        C370   1.405       .  A
C365        C374   1.409       .  A
C370        C371   1.398       .  A
C370        F375   1.357       .  S
C371        H376   1.083       .  S
C371        C372   1.408       .  A
C372        C373   1.408       .  A
C373        C374   1.406       .  A
C373        F377   1.356       .  S
C374        H378   1.083       .  S
C379        H389   1.083       .  S
C379        C380   1.408       .  A
C379        C384   1.406       .  A
C380        C385   1.483       .  S
C380        C381   1.403       .  A
C381        C382   1.393       .  A
C381        F386   1.358       .  S
C382        H387   1.084       .  S
C382        C383   1.405       .  A
C383        C384   1.409       .  A
C384        F388   1.356       .  S
C385        C390   1.401       .  A
C385        C394   1.410       .  A
C390        C391   1.395       .  A
C390        F395   1.358       .  S
C391        H396   1.083       .  S
C391        C392   1.411       .  A
C392        C393   1.401       .  A
C393        C394   1.404       .  A
C393        F397   1.356       .  S
C394        H398   1.083       .  S
C399        H409   1.083       .  S
C399        C400   1.403       .  A
C399        C404   1.396       .  A
C400        C405   1.491       .  S
C400        C401   1.410       .  A
C401        C402   1.408       .  A
C401        F406   1.357       .  S
C402        H407   1.083       .  S
C402        C403   1.406       .  A
C403        C404   1.408       .  A
C404        F408   1.358       .  S
C405        C410   1.404       .  A
C405        C414   1.411       .  A
C410        C411   1.392       .  A
C410        F415   1.358       .  S
C411        H416   1.084       .  S
C411        C412   1.407       .  A
C412        C413   1.407       .  A
C413        C414   1.410       .  A
C413        F417   1.356       .  S
C414        H418   1.083       .  S
C419        H429   1.083       .  S
C419        C420   1.408       .  A
C419        C424   1.404       .  A
C420        C425   1.490       .  S
C420        C421   1.405       .  A
C421        C422   1.396       .  A
C421        F426   1.358       .  S
C422        H427   1.084       .  S
C422        C423   1.406       .  A
C423        C424   1.409       .  A
C424        F428   1.356       .  S
C425        C430   1.403       .  A
C425        C434   1.412       .  A
C430        C431   1.395       .  A
C430        F435   1.358       .  S
C431        H436   1.082       .  S
C431        C432   1.411       .  A
C432        C433   1.402       .  A
C433        C434   1.406       .  A
C433        F437   1.356       .  S
C434        H438   1.083       .  S
C439        H449   1.083       .  S
C439        C440   1.404       .  A
C439        C444   1.398       .  A
C440        C445   1.491       .  S
C440        C441   1.411       .  A
C441        C442   1.405       .  A
C441        F446   1.357       .  S
C442        H447   1.083       .  S
C442        C443   1.404       .  A
C443        C444   1.406       .  A
C444        F448   1.358       .  S
C445        C450   1.413       .  A
C445        C454   1.404       .  A
C450        C451   1.404       .  A
C450        F455   1.358       .  S
C451        H456   1.083       .  S
C451        C452   1.401       .  A
C452        C453   1.406       .  A
C453        C454   1.398       .  A
C453        F457   1.358       .  S
C454        H458   1.083       .  S
C459        H469   1.083       .  S
C459        C460   1.412       .  A
C459        C464   1.411       .  A
C460        C465   1.500       .  S
C460        C461   1.408       .  A
C461        C462   1.396       .  A
C461        F466   1.358       .  S
C462        H467   1.084       .  S
C462        C463   1.406       .  A
C463        C464   1.407       .  A
C464        F468   1.356       .  S
C465        C470   1.414       .  A
C465        C474   1.405       .  A
C470        C471   1.412       .  A
C470        F475   1.357       .  S
C471        H476   1.083       .  S
C471        C472   1.405       .  A
C472        C473   1.408       .  A
C473        C474   1.397       .  A
C473        F477   1.358       .  S
C474        H478   1.083       .  S
C479        H489   1.081       .  S
C479        C480   1.407       .  A
C479        C484   1.400       .  A
C480        C485   1.486       .  S
C480        C481   1.406       .  A
C481        C482   1.393       .  A
C481        F486   1.357       .  S
C482        H487   1.083       .  S
C482        C483   1.404       .  A
C483        C484   1.408       .  A
C484        F488   1.355       .  S
C485        C490   1.406       .  A
C485        C494   1.406       .  A
C490        C491   1.392       .  A
C490        F495   1.351       .  S
C491        H496   1.083       .  S
C491        C492   1.401       .  A
C492        C493   1.407       .  A
C493        C494   1.399       .  A
C493        F497   1.357       .  S
C494        H498   1.083       .  S
C499        H509   1.083       .  S
C499        C500   1.402       .  A
C499        C504   1.392       .  A
C500        C505   1.474       .  S
C500        C501   1.405       .  A
C501        C502   1.397       .  A
C501        F506   1.355       .  S
C502        H507   1.083       .  S
C502        C503   1.401       .  A
C503        C504   1.405       .  A
C504        F508   1.358       .  S
C505        C510   1.405       .  A
C505        C514   1.399       .  A
C510        C511   1.396       .  A
C510        F515   1.354       .  S
C511        H516   1.082       .  S
C511        C512   1.404       .  A
C512        C513   1.410       .  A
C513        C514   1.392       .  A
C513        F517   1.357       .  S
C514        H518   1.084       .  S
C519        H529   1.082       .  S
C519        C520   1.404       .  A
C519        C524   1.397       .  A
C520        C525   1.482       .  S
C520        C521   1.406       .  A
C521        C522   1.395       .  A
C521        F526   1.357       .  S
C522        H527   1.081       .  S
C522        C523   1.404       .  A
C523        C524   1.410       .  A
C524        F528   1.357       .  S
C525        C530   1.406       .  A
C525        C534   1.406       .  A
C530        C531   1.394       .  A
C530        F535   1.354       .  S
C531        H536   1.083       .  S
C531        C532   1.403       .  A
C532        C533   1.401       .  A
C533        C534   1.397       .  A
C533        F537   1.357       .  S
C534        H538   1.083       .  S
C539        H549   1.083       .  S
C539        C540   1.408       .  A
C539        C544   1.399       .  A
C540        C545   1.485       .  S
C540        C541   1.409       .  A
C541        C542   1.397       .  A
C541        F546   1.358       .  S
C542        H547   1.084       .  S
C542        C543   1.402       .  A
C543        C544   1.400       .  A
C544        F548   1.357       .  S
C545        C550   1.407       .  A
C545        C554   1.405       .  A
C550        C551   1.396       .  A
C550        F555   1.354       .  S
C551        H556   1.083       .  S
C551        C552   1.405       .  A
C552        C553   1.406       .  A
C553        C554   1.396       .  A
C553        F557   1.356       .  S
C554        H558   1.083       .  S
C559        H569   1.083       .  S
C559        C560   1.402       .  A
C559        C564   1.394       .  A
C560        C565   1.487       .  S
C560        C561   1.409       .  A
C561        C562   1.405       .  A
C561        F566   1.357       .  S
C562        H567   1.083       .  S
C562        C563   1.406       .  A
C563        C564   1.409       .  A
C564        F568   1.354       .  S
C565        C570   1.410       .  A
C565        C574   1.402       .  A
C570        C571   1.407       .  A
C570        F575   1.357       .  S
C571        H576   1.083       .  S
C571        C572   1.406       .  A
C572        C573   1.407       .  A
C573        C574   1.393       .  A
C573        F577   1.358       .  S
C574        H578   1.083       .  S
C579        H589   1.083       .  S
C579        C580   1.403       .  A
C579        C584   1.394       .  A
C580        C585   1.491       .  S
C580        C581   1.412       .  A
C581        C582   1.406       .  A
C581        F586   1.357       .  S
C582        H587   1.083       .  S
C582        C583   1.404       .  A
C583        C584   1.408       .  A
C584        F588   1.357       .  S
C585        C590   1.408       .  A
C585        C594   1.409       .  A
C590        C591   1.393       .  A
C590        F595   1.358       .  S
C591        H596   1.084       .  S
C591        C592   1.401       .  A
C592        C593   1.408       .  A
C593        C594   1.408       .  A
C593        F597   1.357       .  S
C594        H598   1.083       .  S
C599        H609   1.083       .  S
C599        C600   1.405       .  A
C599        C604   1.394       .  A
C600        C605   1.493       .  S
C600        C601   1.412       .  A
C601        C602   1.406       .  A
C601        F606   1.357       .  S
C602        H607   1.083       .  S
C602        C603   1.406       .  A
C603        C604   1.405       .  A
C604        F608   1.358       .  S
C605        C610   1.409       .  A
C605        C614   1.407       .  A
C610        C611   1.398       .  A
C610        F615   1.358       .  S
C611        H616   1.083       .  S
C611        C612   1.406       .  A
C612        C613   1.409       .  A
C613        C614   1.403       .  A
C613        F617   1.356       .  S
C614        H618   1.083       .  S
C619        H629   1.082       .  S
C619        C620   1.408       .  A
C619        C624   1.398       .  A
C620        C625   1.496       .  S
C620        C621   1.412       .  A
C621        C622   1.403       .  A
C621        F626   1.357       .  S
C622        H627   1.083       .  S
C622        C623   1.406       .  A
C623        C624   1.405       .  A
C624        F628   1.358       .  S
C625        C630   1.413       .  A
C625        C634   1.409       .  A
C630        C631   1.399       .  A
C630        F635   1.357       .  S
C631        H636   1.084       .  S
C631        C632   1.400       .  A
C632        C633   1.403       .  A
C633        C634   1.399       .  A
C633        F637   1.358       .  S
C634        H638   1.082       .  S
C639        H649   1.083       .  S
C639        C640   1.402       .  A
C639        C644   1.393       .  A
C640        C645   1.485       .  S
C640        C641   1.408       .  A
C641        C642   1.397       .  A
C641        F646   1.351       .  S
C642        H647   1.083       .  S
C642        C643   1.403       .  A
C643        C644   1.409       .  A
C644        F648   1.357       .  S
C645        C650   1.408       .  A
C645        C654   1.406       .  A
C650        C651   1.395       .  A
C650        F655   1.358       .  S
C651        H656   1.083       .  S
C651        C652   1.404       .  A
C652        C653   1.405       .  A
C653        C654   1.398       .  A
C653        F657   1.357       .  S
C654        H658   1.080       .  S
C659        H669   1.083       .  S
C659        C660   1.401       .  A
C659        C664   1.397       .  A
C660        C665   1.474       .  S
C660        C661   1.402       .  A
C661        C662   1.394       .  A
C661        F666   1.355       .  S
C662        H667   1.082       .  S
C662        C663   1.407       .  A
C663        C664   1.409       .  A
C664        F668   1.357       .  S
C665        C670   1.406       .  A
C665        C674   1.400       .  A
C670        C671   1.395       .  A
C670        F675   1.356       .  S
C671        H676   1.084       .  S
C671        C672   1.400       .  A
C672        C673   1.408       .  A
C673        C674   1.395       .  A
C673        F677   1.357       .  S
C674        H678   1.083       .  S
C679        H689   1.083       .  S
C679        C680   1.405       .  A
C679        C684   1.395       .  A
C680        C685   1.483       .  S
C680        C681   1.408       .  A
C681        C682   1.395       .  A
C681        F686   1.354       .  S
C682        H687   1.083       .  S
C682        C683   1.405       .  A
C683        C684   1.405       .  A
C684        F688   1.356       .  S
C685        C690   1.408       .  A
C685        C694   1.402       .  A
C690        C691   1.395       .  A
C690        F695   1.357       .  S
C691        H696   1.084       .  S
C691        C692   1.400       .  A
C692        C693   1.404       .  A
C693        C694   1.395       .  A
C693        F697   1.355       .  S
C694        H698   1.076       .  S
C699        H709   1.082       .  S
C699        C700   1.405       .  A
C699        C704   1.393       .  A
C700        C705   1.489       .  S
C700        C701   1.410       .  A
C701        C702   1.398       .  A
C701        F706   1.357       .  S
C702        H707   1.083       .  S
C702        C703   1.406       .  A
C703        C704   1.407       .  A
C704        F708   1.354       .  S
C705        C710   1.410       .  A
C705        C714   1.408       .  A
C710        C711   1.392       .  A
C710        F715   1.357       .  S
C711        H716   1.083       .  S
C711        C712   1.401       .  A
C712        C713   1.401       .  A
C713        C714   1.398       .  A
C713        F717   1.358       .  S
C714        H718   1.079       .  S
C719        H729   1.083       .  S
C719        C720   1.407       .  A
C719        C724   1.402       .  A
C720        C725   1.482       .  S
C720        C721   1.406       .  A
C721        C722   1.391       .  A
C721        F726   1.358       .  S
C722        H727   1.084       .  S
C722        C723   1.403       .  A
C723        C724   1.406       .  A
C724        F728   1.357       .  S
C725        C730   1.408       .  A
C725        C734   1.403       .  A
C730        C731   1.399       .  A
C730        F735   1.357       .  S
C731        H736   1.083       .  S
C731        C732   1.402       .  A
C732        C733   1.409       .  A
C733        C734   1.395       .  A
C733        F737   1.358       .  S
C734        H738   1.083       .  S
C739        H749   1.083       .  S
C739        C740   1.408       .  A
C739        C744   1.399       .  A
C740        C745   1.491       .  S
C740        C741   1.409       .  A
C741        C742   1.401       .  A
C741        F746   1.358       .  S
C742        H747   1.083       .  S
C742        C743   1.407       .  A
C743        C744   1.403       .  A
C744        F748   1.357       .  S
C745        C750   1.410       .  A
C745        C754   1.407       .  A
C750        C751   1.400       .  A
C750        F755   1.357       .  S
C751        H756   1.084       .  S
C751        C752   1.401       .  A
C752        C753   1.405       .  A
C753        C754   1.400       .  A
C753        F757   1.358       .  S
C754        H758   1.083       .  S
C759        H769   1.083       .  S
C759        C760   1.407       .  A
C759        C764   1.403       .  A
C760        C765   1.493       .  S
C760        C761   1.410       .  A
C761        C762   1.400       .  A
C761        F766   1.358       .  S
C762        H767   1.083       .  S
C762        C763   1.401       .  A
C763        C764   1.406       .  A
C764        F768   1.358       .  S
C765        C770   1.410       .  A
C765        C774   1.407       .  A
C770        C771   1.404       .  A
C770        F775   1.357       .  S
C771        H776   1.083       .  S
C771        C772   1.407       .  A
C772        C773   1.406       .  A
C773        C774   1.398       .  A
C773        F777   1.357       .  S
C774        H778   1.083       .  S
C779        H789   1.083       .  S
C779        C780   1.408       .  A
C779        C784   1.402       .  A
C780        C785   1.490       .  S
C780        C781   1.408       .  A
C781        C782   1.397       .  A
C781        F786   1.358       .  S
C782        H787   1.083       .  S
C782        C783   1.405       .  A
C783        C784   1.404       .  A
C784        F788   1.357       .  S
C785        C790   1.411       .  A
C785        C794   1.406       .  A
C790        C791   1.404       .  A
C790        F795   1.357       .  S
C791        H796   1.083       .  S
C791        C792   1.404       .  A
C792        C793   1.402       .  A
C793        C794   1.394       .  A
C793        F797   1.358       .  S
C794        H798   1.083       .  S
