geometry optimzed in LAMMPS
_audit_creation_date              2020-11-30 
_audit_creation_method            'lammps2cif' 
_symmetry_space_group_name_H-M    'P1' 
_symmetry_Int_Tables_number       1 
_symmetry_cell_setting            triclinic 
loop_ 
_symmetry_equiv_pos_as_xyz 
  x,y,z 
_cell_length_a                    44.20808718 
_cell_length_b                    44.21642723843813 
_cell_length_c                    44.11473495681429 
_cell_angle_alpha                 90.13669028252936 
_cell_angle_beta                  89.8562128010366 
_cell_angle_gamma                 89.9455611304042 
loop_ 
_atom_site_label 
_atom_site_type_symbol 
_atom_site_fract_x 
_atom_site_fract_y 
_atom_site_fract_z 
_atom_site_charge 
Zn1        Zn  0.16255615  0.18700964  0.12949634     1.49700
Zn2        Zn  0.18377672  0.12699581  0.16433495     1.49400
Zn3        Zn  0.12738969  0.16423428  0.18904289     1.49100
Zn4        Zn  0.12267673  0.12794062  0.12669422     1.49500
O5          O  0.14919441  0.15173804  0.15254132    -1.84000
O6          O  0.20808714  0.18746609  0.12462688    -0.74600
O7          O  0.18667349  0.12111508  0.21004446    -0.74400
O8          O  0.12307414  0.20988351  0.19120534    -0.74000
O9          O  0.22203772  0.14681817  0.15074801    -0.74600
O10         O  0.15072680  0.22452564  0.15183646    -0.74200
O11         O  0.14930970  0.15031591  0.22676612    -0.74800
O12         O  0.08510056  0.11569109  0.14917419    -0.74200
O13         O  0.18392210  0.08747826  0.14164432    -0.75000
O14         O  0.08650803  0.14421009  0.19062297    -0.74400
O15         O  0.14395794  0.09072787  0.11153111    -0.74800
O16         O  0.11027159  0.15117800  0.08986178    -0.74700
O17         O  0.14192390  0.18995866  0.08843427    -0.74500
C18         C  0.22849495  0.16986756  0.13482216     0.77300
C19         C  0.17175444  0.13293990  0.23185558     0.77800
C20         C  0.13479679  0.23074802  0.17508930     0.76700
C21         C  0.07343733  0.12450895  0.17411151     0.77100
C22         C  0.16793762  0.07724260  0.11992321     0.78200
C23         C  0.12043710  0.17469346  0.07676286     0.77300
Zn24       Zn  0.86313402  0.62464594  0.36073349     1.49700
Zn25       Zn  0.80263765  0.63014132  0.32235777     1.49400
Zn26       Zn  0.82830088  0.68659647  0.36002487     1.49100
Zn27       Zn  0.86324096  0.66378036  0.30037315     1.49500
O28         O  0.83915703  0.65142312  0.33561762    -1.84000
O29         O  0.83884061  0.58837511  0.37314133    -0.74600
O30         O  0.76582878  0.65382108  0.33511687    -0.74400
O31         O  0.85038323  0.68720914  0.40042687    -0.74000
O32         O  0.79852667  0.58937843  0.34334998    -0.74600
O33         O  0.87862223  0.64573813  0.39826889    -0.74200
O34         O  0.78297877  0.68924970  0.36640329    -0.74800
O35         O  0.86818383  0.70967303  0.29817237    -0.74200
O36         O  0.80210658  0.62452338  0.27652222    -0.75000
O37         O  0.84115135  0.72414848  0.33807399    -0.74400
O38         O  0.84331050  0.64948157  0.26204130    -0.74800
O39         O  0.90351876  0.64223657  0.29965635    -0.74700
O40         O  0.89914958  0.60981122  0.33775396    -0.74500
C41         C  0.81417817  0.57665885  0.36396178     0.77300
C42         C  0.76107747  0.67545337  0.35370316     0.77800
C43         C  0.87076153  0.67011527  0.41155891     0.76700
C44         C  0.85695572  0.73055947  0.31479460     0.77100
C45         C  0.82002942  0.63375099  0.25580383     0.78200
C46         C  0.91328832  0.61965987  0.31466866     0.77300
C47         C  0.99710798  0.25866787  0.90347493     0.86600
C48         C  0.00897195  0.29083568  0.89897223    -0.53600
C49         C  0.99375591  0.30740893  0.87792191     0.09500
C50         C  0.96820468  0.28967446  0.86216957     0.20500
C51         C  0.96283400  0.26301363  0.91000893    -0.54300
C52         C  0.94798450  0.27932389  0.88838383     0.09700
C53         C  0.99790020  0.24422903  0.87186467    -0.53900
C54         C  0.98248385  0.26001768  0.85022261     0.10200
H55         H  0.02754115  0.30000327  0.91218305     0.14700
H56         H  0.95587624  0.30270409  0.84459281     0.00500
H57         H  0.95063703  0.25424477  0.92933516     0.15000
H58         H  0.00740558  0.22193027  0.86773198     0.14800
C59         C  0.73602985  0.39979458  0.48716486     0.86600
C60         C  0.70512686  0.39096420  0.47441867    -0.53600
C61         C  0.69121855  0.36785863  0.48923351     0.07500
C62         C  0.70986316  0.35489959  0.51550778     0.20500
C63         C  0.72993488  0.40584240  0.52136044    -0.54300
C64         C  0.71606836  0.38227595  0.53591787     0.09700
C65         C  0.75465174  0.37047229  0.48733736    -0.53900
C66         C  0.74128735  0.34711152  0.50256308     0.10200
H67         H  0.69409256  0.40356298  0.45642886     0.14700
H68         H  0.69884652  0.33579008  0.52752013     0.00500
H69         H  0.73649619  0.42597216  0.53366652     0.15000
H70         H  0.77726874  0.36893506  0.47779777     0.14800
C71         C  0.59430631  0.98616262  0.76053169     0.86600
C72         C  0.60349237  0.97410427  0.79172449    -0.53600
C73         C  0.62670934  0.98936236  0.80516771     0.09500
C74         C  0.63968976  0.01512335  0.78525526     0.20500
C75         C  0.58868083  0.02031105  0.76540019    -0.54300
C76         C  0.61244321  0.03544969  0.77806171     0.09700
C77         C  0.62397387  0.98467424  0.74206681    -0.53900
C78         C  0.64747910  0.00055425  0.75433132     0.10200
H79         H  0.59150107  0.95587268  0.80299953     0.14700
H80         H  0.65872112  0.02758713  0.79587982     0.00500
H81         H  0.56804069  0.03166512  0.75845979     0.15000
H82         H  0.62678111  0.97275979  0.72086620     0.14800
Zn83       Zn  0.87366130  0.12027305  0.62153676     1.49700
Zn84       Zn  0.88002948  0.05750769  0.58757840     1.49400
Zn85       Zn  0.90770332  0.11788192  0.55851867     1.49100
Zn86       Zn  0.93829239  0.09009984  0.61848813     1.49500
O87         O  0.90028669  0.09606850  0.59632778    -1.84000
O88         O  0.84128490  0.09483885  0.64030279    -0.74600
O89         O  0.87074738  0.05283093  0.54208318    -0.74400
O90         O  0.88193618  0.15572691  0.55604681    -0.74000
O91         O  0.84186009  0.05256472  0.61324146    -0.74600
O92         O  0.85348658  0.15272653  0.59738920    -0.74200
O93         O  0.89425931  0.09274591  0.52291151    -0.74800
O94         O  0.97307001  0.10659199  0.59365753    -0.74200
O95         O  0.90747313  0.02345295  0.60062934    -0.75000
O96         O  0.95236211  0.12762061  0.55303786    -0.74400
O97         O  0.94624476  0.04508116  0.62453327    -0.74800
O98         O  0.93868464  0.11352924  0.65881524    -0.74700
O99         O  0.89623989  0.14017872  0.65544656    -0.74500
C100        C  0.83053345  0.06883743  0.63436253     0.77300
C101        C  0.87908664  0.06854714  0.51924236     0.77800
C102        C  0.85993372  0.16520109  0.57225200     0.76700
C103        C  0.97562817  0.12097753  0.56876780     0.77100
C104        C  0.93211621  0.02155965  0.61548839     0.78200
C105        C  0.92102393  0.13420692  0.66876703     0.77300
Zn106      Zn  0.66627098  0.34443059  0.87654395     1.49700
Zn107      Zn  0.67549522  0.31341299  0.81274207     1.49400
Zn108      Zn  0.60887410  0.32139435  0.83756215     1.49100
Zn109      Zn  0.64630762  0.37918417  0.81637172     1.49500
O110        O  0.64910652  0.33978375  0.83601053    -1.84000
O111        O  0.70727944  0.32393480  0.88022647    -0.74600
O112        O  0.65727911  0.27195249  0.80922396    -0.74400
O113        O  0.59657769  0.31666303  0.88106931    -0.74000
O114        O  0.71578019  0.30885587  0.83300028    -0.74600
O115        O  0.63674915  0.32929277  0.90845436    -0.74200
O116        O  0.60871760  0.27842708  0.82036110    -0.74800
O117        O  0.60271046  0.39077821  0.80974698    -0.74200
O118        O  0.68241022  0.32993190  0.77081525    -0.75000
O119        O  0.57730386  0.34825791  0.81766248    -0.74400
O120        O  0.66451676  0.37679628  0.77448009    -0.74800
O121        O  0.66666562  0.41219866  0.84123155    -0.74700
O122        O  0.67598022  0.38817546  0.88441890    -0.74500
C123        C  0.72482371  0.31282705  0.86007989     0.77300
C124        C  0.63059840  0.26145217  0.81206387     0.77800
C125        C  0.60962905  0.31955732  0.90662176     0.76700
C126        C  0.57802445  0.37590593  0.80943945     0.77100
C127        C  0.67706141  0.35571854  0.75918733     0.78200
C128        C  0.67660699  0.41207116  0.86835603     0.77300
C129        C  0.25605096  0.90002567  0.00322841     0.86600
C130        C  0.28762923  0.89353660  0.01602968    -0.53600
C131        C  0.30300059  0.87080382  0.00161373     0.09500
C132        C  0.28508393  0.85659058  0.97525193     0.20500
C133        C  0.26104697  0.90572269  0.96922452    -0.54300
C134        C  0.27646596  0.88323838  0.95477707     0.09700
C135        C  0.23967526  0.86921606  0.00382408    -0.53900
C136        C  0.25474678  0.84648727  0.98916300     0.10200
H137        H  0.29740769  0.90700963  0.03411450     0.14700
H138        H  0.29721321  0.83816953  0.96313225     0.00500
H139        H  0.25215039  0.92526522  0.95732180     0.15000
H140        H  0.21676223  0.86592829  0.01169769     0.14800
C141        C  0.39594953  0.48782662  0.72474122     0.86600
C142        C  0.38531338  0.47760577  0.69311214    -0.53600
C143        C  0.36320757  0.49523569  0.68099256     0.09500
C144        C  0.35347443  0.52172799  0.70128317     0.20500
C145        C  0.40521822  0.52112146  0.71978714    -0.54300
C146        C  0.38287093  0.53898670  0.70803455     0.09700
C147        C  0.36681506  0.48939926  0.74384594    -0.53900
C148        C  0.34473129  0.50732690  0.73175570     0.10200
H149        H  0.39523335  0.45947883  0.67989863     0.14700
H150        H  0.33518194  0.53576192  0.69137035     0.00500
H151        H  0.42755715  0.52971604  0.72519558     0.15000
H152        H  0.36433903  0.47826417  0.76562745     0.14800
C153        C  0.98718726  0.75842457  0.59026435     0.86600
C154        C  0.97692311  0.79084124  0.59826090    -0.53600
C155        C  0.99337771  0.80449623  0.62030767     0.09500
C156        C  0.01808130  0.78430709  0.63378767     0.20500
C157        C  0.02148164  0.76117175  0.58378815    -0.54300
C158        C  0.03748853  0.77483896  0.60656345     0.09700
C159        C  0.98556808  0.74168867  0.62092683    -0.53900
C160        C  0.00237471  0.75468508  0.64364204     0.10200
H161        H  0.95868196  0.80306431  0.58752752     0.14700
H162        H  0.03105452  0.79560808  0.65210690     0.00500
H163        H  0.03213013  0.75275626  0.56322376     0.15000
H164        H  0.97424325  0.72012647  0.62353270     0.14800
Zn165      Zn  0.07898568  0.63666032  0.89697984     1.49700
Zn166      Zn  0.13638883  0.59388491  0.91535914     1.49400
Zn167      Zn  0.06934568  0.57129251  0.92483624     1.49100
Zn168      Zn  0.09403121  0.57805065  0.85730096     1.49500
O169        O  0.09506109  0.59516553  0.89846643    -1.84000
O170        O  0.10921131  0.66556376  0.91566458    -0.74600
O171        O  0.13838171  0.57072001  0.95585904    -0.74400
O172        O  0.03184828  0.59376237  0.93568873    -0.74000
O173        O  0.14937289  0.63671574  0.92530848    -0.74600
O174        O  0.03766437  0.64011094  0.91774770    -0.74200
O175        O  0.09030725  0.55870017  0.96317282    -0.74800
O176        O  0.07014318  0.53887673  0.85603230    -0.74200
O177        O  0.16584986  0.57541990  0.88424320    -0.75000
O178        O  0.05533906  0.53387799  0.90391528    -0.74400
O179        O  0.13620888  0.56686534  0.84453202    -0.74800
O180        O  0.07707587  0.60799794  0.82630754    -0.74700
O181        O  0.07153034  0.64974741  0.85370319    -0.74500
C182        C  0.13631090  0.66248422  0.92510365     0.77300
C183        C  0.11759940  0.55904853  0.97225787     0.77800
C184        C  0.02171958  0.62032099  0.93140028     0.76700
C185        C  0.05672805  0.52407213  0.87683926     0.77100
C186        C  0.16215286  0.56616384  0.85699080     0.78200
C187        C  0.07016568  0.63597941  0.82832104     0.77300
C188        C  0.49991333  0.22844385  0.08681051     0.86600
C189        C  0.51229554  0.19715454  0.09576977    -0.53600
C190        C  0.49797741  0.18420798  0.11985617     0.09500
C191        C  0.47277739  0.20398399  0.13334211     0.20500
C192        C  0.46590902  0.22233403  0.08188109    -0.54300
C193        C  0.45144541  0.21013646  0.10649836     0.09700
C194        C  0.50137724  0.24753746  0.11581790    -0.53900
C195        C  0.48718216  0.23494841  0.14026408     0.10200
H196        H  0.52875690  0.18450260  0.08266554     0.14700
H197        H  0.46170183  0.19350214  0.15327117     0.00500
H198        H  0.45457168  0.22676880  0.06057470     0.15000
H199        H  0.51111216  0.27005729  0.11615935     0.14800
C200        C  0.23146129  0.09063625  0.50469576     0.86600
C201        C  0.19945703  0.10095774  0.51408074    -0.53600
C202        C  0.18889178  0.12513112  0.49835181     0.09500
C203        C  0.21101950  0.13722132  0.47444216     0.20500
C204        C  0.22885144  0.08532006  0.47014870    -0.54300
C205        C  0.21853052  0.10982127  0.45432376     0.09700
C206        C  0.25085653  0.11937258  0.50791013    -0.53900
C207        C  0.24069488  0.14366147  0.49156602     0.10200
H208        H  0.18502046  0.08999455  0.53050229     0.14700
H209        H  0.20179902  0.15661990  0.46149170     0.00500
H210        H  0.23515401  0.06422351  0.45916339     0.15000
H211        H  0.27115684  0.12001499  0.52164337     0.14800
C212        C  0.09479270  0.50274681  0.23606237     0.86600
C213        C  0.10307337  0.51415036  0.20435618    -0.53600
C214        C  0.12594218  0.49864167  0.19054953     0.09500
C215        C  0.13914264  0.47309619  0.21024215     0.20500
C216        C  0.08876664  0.46861795  0.23217695    -0.54300
C217        C  0.11193192  0.45307374  0.21868180     0.09700
C218        C  0.12479889  0.50373222  0.25385234    -0.53900
C219        C  0.14782153  0.48790206  0.24057347     0.10200
H220        H  0.09095603  0.53239499  0.19324140     0.14700
H221        H  0.15802472  0.46065033  0.19918944     0.00500
H222        H  0.06856127  0.45761918  0.24078989     0.15000
H223        H  0.12770641  0.51362523  0.27608762     0.14800
Zn224      Zn  0.37579928  0.36817592  0.36922184     1.49700
Zn225      Zn  0.40676676  0.37317094  0.43457565     1.49400
Zn226      Zn  0.44107308  0.39891048  0.37658770     1.49100
Zn227      Zn  0.38170018  0.43221810  0.40134890     1.49500
O228        O  0.40138132  0.39305179  0.39538190    -1.84000
O229        O  0.35596055  0.33439868  0.39360646    -0.74600
O230        O  0.45089438  0.36294004  0.44331411    -0.74400
O231        O  0.44496193  0.37444248  0.33831684    -0.74000
O232        O  0.38045235  0.33610313  0.43743215    -0.74600
O233        O  0.40067602  0.35074290  0.33479056    -0.74200
O234        O  0.47382415  0.38347993  0.40358168    -0.74800
O235        O  0.40947702  0.46558008  0.38844346    -0.74200
O236        O  0.39178379  0.40017578  0.46796820    -0.75000
O237        O  0.44974686  0.44321864  0.36822230    -0.74400
O238        O  0.37039881  0.43931804  0.44515137    -0.74800
O239        O  0.34464414  0.43671991  0.37531125    -0.74700
O240        O  0.34266775  0.39333581  0.35009017    -0.74500
C241        C  0.36046176  0.32431318  0.42031717     0.77300
C242        C  0.47493739  0.36942339  0.42867657     0.77800
C243        C  0.42736583  0.35591498  0.32505615     0.76700
C244        C  0.43495802  0.46706454  0.37504026     0.77100
C245        C  0.37697253  0.42486869  0.46918456     0.78200
C246        C  0.33266387  0.41990384  0.35520181     0.77300
Zn247      Zn  0.31419020  0.81063623  0.68089919     1.49700
Zn248      Zn  0.33833417  0.87781627  0.67301997     1.49400
Zn249      Zn  0.37866694  0.82252329  0.65083919     1.49100
Zn250      Zn  0.31805639  0.83829119  0.61521776     1.49500
O251        O  0.33736910  0.83748160  0.65495377    -1.84000
O252        O  0.30775308  0.82978067  0.72144992    -0.74600
O253        O  0.38118633  0.89046630  0.68221521    -0.74400
O254        O  0.38225965  0.78060958  0.66837410    -0.74000
O255        O  0.31718344  0.87846467  0.71382819    -0.74600
O256        O  0.33631056  0.77133536  0.68668728    -0.74200
O257        O  0.40938625  0.85076250  0.67017343    -0.74800
O258        O  0.34493641  0.81917552  0.58301044    -0.74200
O259        O  0.32081888  0.90861244  0.64412372    -0.75000
O260        O  0.38906296  0.81712546  0.60685895    -0.74400
O261        O  0.31109395  0.88151152  0.60284137    -0.74800
O262        O  0.27647992  0.81861703  0.61642610    -0.74700
O263        O  0.27269918  0.80201009  0.66362011    -0.74500
C264        C  0.30836814  0.85696956  0.73093259     0.77300
C265        C  0.40686007  0.87745482  0.68095101     0.77800
C266        C  0.36323566  0.76285370  0.68074091     0.76700
C267        C  0.37335807  0.81411354  0.58286158     0.77100
C268        C  0.31214506  0.90685678  0.61661755     0.78200
C269        C  0.26111529  0.80627258  0.63756766     0.77300
C270        C  0.90040794  0.00234327  0.25934798     0.86600
C271        C  0.89038981  0.01591292  0.28979375    -0.53600
C272        C  0.86714157  0.00100394  0.30345458     0.09500
C273        C  0.85539667  0.97380049  0.28505988     0.20500
C274        C  0.90709664  0.96864469  0.26654510    -0.54300
C275        C  0.88330945  0.95375497  0.27964630     0.09700
C276        C  0.87166268  0.00085695  0.23993810    -0.53900
C277        C  0.84818463  0.98598764  0.25326253     0.10200
H278        H  0.90183950  0.03490192  0.30041962     0.14700
H279        H  0.83621883  0.96175299  0.29597628     0.00500
H280        H  0.92725368  0.95648679  0.25977352     0.15000
H281        H  0.87050169  0.00941499  0.21690483     0.14800
C282        C  0.48831082  0.72523730  0.40366152     0.86600
C283        C  0.48142287  0.69213052  0.39525625    -0.53600
C284        C  0.49795915  0.68141908  0.37148448     0.09500
C285        C  0.51993472  0.70458485  0.35787230     0.20500
C286        C  0.52287673  0.72530463  0.40894473    -0.54300
C287        C  0.53936464  0.71492947  0.38477922     0.09700
C288        C  0.48378125  0.74278950  0.37396455    -0.53900
C289        C  0.50075876  0.73264417  0.35003885     0.10200
H290        H  0.46643848  0.67719870  0.40754290     0.14700
H291        H  0.53358300  0.69520073  0.33896389     0.00500
H292        H  0.53334574  0.73345119  0.42965063     0.15000
H293        H  0.46941867  0.76266702  0.37258212     0.14800
C294        C  0.75672747  0.59514623  0.98257575     0.86600
C295        C  0.78709791  0.60472734  0.96884522    -0.53600
C296        C  0.80089190  0.62804992  0.98348680     0.09500
C297        C  0.78272466  0.64007070  0.01091594     0.20500
C298        C  0.76474957  0.58861944  0.01618032    -0.54300
C299        C  0.77750828  0.61241879  0.03144902     0.09700
C300        C  0.73751696  0.62414626  0.98386455    -0.53900
C301        C  0.75090490  0.64765996  0.99895825     0.10200
H302        H  0.79791741  0.59247490  0.95039635     0.14700
H303        H  0.79370926  0.65967564  0.02199730     0.00500
H304        H  0.76207035  0.56691304  0.02690424     0.15000
H305        H  0.71442967  0.62502282  0.97558912     0.14800
Zn306      Zn  0.59243016  0.91274334  0.14104312     1.49700
Zn307      Zn  0.57463151  0.85637559  0.09863972     1.49400
Zn308      Zn  0.56531531  0.92375316  0.07471071     1.49100
Zn309      Zn  0.63198452  0.89842014  0.08118815     1.49500
O310        O  0.59115634  0.89769056  0.09903230    -1.84000
O311        O  0.57499018  0.88206072  0.17068939    -0.74600
O312        O  0.53586619  0.85370155  0.07417014    -0.74400
O313        O  0.55091982  0.95948985  0.09908293    -0.74000
O314        O  0.56344926  0.84301931  0.14111720    -0.74600
O315        O  0.56963231  0.95255780  0.14533704    -0.74200
O316        O  0.52868540  0.90142408  0.06064451    -0.74800
O317        O  0.63310878  0.92077895  0.04061960    -0.74200
O318        O  0.60549373  0.82699231  0.08139982    -0.75000
O319        O  0.58629863  0.93807826  0.03656657    -0.74400
O320        O  0.64560625  0.85579536  0.07206260    -0.74800
O321        O  0.66228942  0.91632371  0.11079842    -0.74700
O322        O  0.63545827  0.92108952  0.15321791    -0.74500
C323        C  0.56445352  0.85542524  0.16720681     0.77300
C324        C  0.52001230  0.87401557  0.06130102     0.77800
C325        C  0.55427764  0.96801343  0.12647043     0.76700
C326        C  0.61281149  0.93482333  0.02566805     0.77100
C327        C  0.63275354  0.83000471  0.07233978     0.78200
C328        C  0.66051487  0.92267980  0.13899373     0.77300
C329        C  0.65245242  0.75217443  0.04054423    -0.27500
C330        C  0.68416825  0.75306829  0.04058970     0.02100
C331        C  0.69888259  0.77925710  0.05115211     0.30200
C332        C  0.68187522  0.80406936  0.06133795    -0.19300
C333        C  0.65006177  0.80313585  0.06172182    -0.28700
C334        C  0.63540781  0.77674891  0.05124982     0.44300
C335        C  0.70162279  0.72647575  0.02967243     0.05400
O336        O  0.72985648  0.78123658  0.05038064    -0.57200
H337        H  0.69371591  0.82407803  0.06908842     0.18400
O338        O  0.60444925  0.77511668  0.05022909    -0.63900
H339        H  0.64084335  0.73219023  0.03238028     0.16800
C340        C  0.72170644  0.71118851  0.04902253     0.29100
C341        C  0.73786752  0.68607280  0.03844156    -0.24800
C342        C  0.73418363  0.67537622  0.00862856    -0.24100
C343        C  0.71387477  0.69059293  0.98928883     0.40500
C344        C  0.69769543  0.71582405  0.99991988    -0.26500
O345        O  0.72517572  0.72017806  0.07859035    -0.58400
H346        H  0.75267445  0.67440047  0.05405196     0.16200
O347        O  0.70980278  0.68121292  0.95993721    -0.59900
H348        H  0.68220993  0.72730456  0.98480666     0.14600
H349        H  0.59847106  0.76440421  0.06902955     0.46500
H350        H  0.70890764  0.70969163  0.08993947     0.41900
H351        H  0.72594280  0.69143271  0.94814508     0.45300
H352        H  0.73639467  0.78053336  0.07186654     0.36800
C353        C  0.52058932  0.75542860  0.26905092    -0.27500
C354        C  0.52273019  0.78705854  0.27170219     0.02100
C355        C  0.51476041  0.80075815  0.29945624     0.30200
C356        C  0.50651880  0.78283536  0.32430484    -0.19300
C357        C  0.50557436  0.75106946  0.32207967    -0.28700
C358        C  0.51183864  0.73753166  0.29377301     0.44300
C359        C  0.53312546  0.80534783  0.24528543     0.05400
O360        O  0.51400168  0.83169655  0.30218568    -0.57200
H361        H  0.50181657  0.79401680  0.34566239     0.18400
O362        O  0.50972925  0.70682929  0.28993918    -0.63900
H363        H  0.52615468  0.74446831  0.24776400     0.16800
C364        C  0.55698713  0.82641259  0.24789033     0.29100
C365        C  0.56644205  0.84307139  0.22255349    -0.24800
C366        C  0.55319130  0.83843854  0.19400113    -0.24100
C367        C  0.52952203  0.81718243  0.19136086     0.40500
C368        C  0.51970217  0.80095328  0.21680029    -0.26500
O369        O  0.57188329  0.83028359  0.27485375    -0.58400
H370        H  0.58487088  0.85901296  0.22506839     0.16200
O371        O  0.51558254  0.81222335  0.16405783    -0.59900
H372        H  0.50136764  0.78490544  0.21427386     0.14600
H373        H  0.48795728  0.70284561  0.28637291     0.46500
H374        H  0.58749675  0.81417947  0.27525469     0.41900
H375        H  0.49913274  0.82743818  0.16307585     0.45300
H376        H  0.52951165  0.83688887  0.31754494     0.36800
C377        C  0.79720602  0.95073542  0.19406588    -0.27500
C378        C  0.76847389  0.96042353  0.20372205     0.02100
C379        C  0.76626391  0.97871787  0.22997077     0.30200
C380        C  0.79231430  0.98652623  0.24623147    -0.19300
C381        C  0.82087147  0.97725591  0.23613236    -0.28700
C382        C  0.82326970  0.95925344  0.20985212     0.44300
C383        C  0.74100039  0.95073269  0.18678390     0.05400
O384        O  0.73878780  0.98940719  0.23974880    -0.57200
H385        H  0.79028695  0.00039478  0.26642170     0.18400
O386        O  0.85102321  0.94965881  0.19962096    -0.63900
H387        H  0.79949627  0.93610961  0.17447164     0.16800
C388        C  0.73927404  0.95301606  0.15492602     0.29100
C389        C  0.71306663  0.94368264  0.13968390    -0.24800
C390        C  0.68813992  0.93205864  0.15566771    -0.24100
C391        C  0.69005525  0.92952331  0.18752625     0.40500
C392        C  0.71627886  0.93864752  0.20268057    -0.26500
O393        O  0.76250667  0.96564932  0.13862285    -0.58400
H394        H  0.71211335  0.94605473  0.11526659     0.16200
O395        O  0.66655241  0.91794276  0.20419902    -0.59900
H396        H  0.71737567  0.93594479  0.22705409     0.14600
H397        H  0.85262384  0.92818273  0.20589772     0.46500
H398        H  0.77174535  0.94869377  0.12709304     0.41900
H399        H  0.67024196  0.89584435  0.20491160     0.45300
H400        H  0.73555146  0.00846277  0.22838092     0.36800
C401        C  0.38866775  0.78234097  0.50376041    -0.27500
C402        C  0.42044153  0.78135172  0.50342961     0.02100
C403        C  0.43640927  0.79263111  0.52858134     0.30200
C404        C  0.42072297  0.80390244  0.55372497    -0.19300
C405        C  0.38889845  0.80409081  0.55462004    -0.28700
C406        C  0.37287783  0.79359793  0.52900063     0.44300
C407        C  0.43680195  0.76722159  0.47754199     0.05400
O408        O  0.46742290  0.79191356  0.52924646    -0.57200
H409        H  0.43369916  0.81202154  0.57288193     0.18400
O410        O  0.34186477  0.79295534  0.52878993    -0.63900
H411        H  0.37601206  0.77399169  0.48448120     0.16800
C412        C  0.42977752  0.73771835  0.46792141     0.29100
C413        C  0.44614237  0.72419556  0.44432337    -0.24800
C414        C  0.47028170  0.73940812  0.42990083    -0.24100
C415        C  0.47689175  0.76926858  0.43950736     0.40500
C416        C  0.46035160  0.78277942  0.46305864    -0.26500
O417        O  0.40710613  0.72160906  0.48172107    -0.58400
H418        H  0.43919182  0.70183943  0.43767774     0.16200
O419        O  0.49989201  0.78536637  0.42624261    -0.59900
H420        H  0.46594248  0.80561895  0.46999240     0.14600
H421        H  0.33567102  0.81209100  0.51890977     0.46500
H422        H  0.41667255  0.71209802  0.49962644     0.41900
H423        H  0.48983699  0.79955393  0.41207482     0.45300
H424        H  0.47266215  0.77194472  0.53796114     0.36800
C425        C  0.44048975  0.55138370  0.36016324    -0.27500
C426        C  0.47185516  0.55566957  0.35807479     0.02100
C427        C  0.49110476  0.53030209  0.35997380     0.30200
C428        C  0.47888836  0.50137891  0.36457675    -0.19300
C429        C  0.44747924  0.49728468  0.36761525    -0.28700
C430        C  0.42826777  0.52263134  0.36467550     0.44300
C431        C  0.48382655  0.58704017  0.35695846     0.05400
O432        O  0.52188974  0.53362415  0.35810217    -0.57200
H433        H  0.49409193  0.48227301  0.36669342     0.18400
O434        O  0.39743577  0.51974486  0.36672558    -0.63900
H435        H  0.42531911  0.57061454  0.35934115     0.16800
C436        C  0.47268277  0.60823355  0.33584760     0.29100
C437        C  0.47953291  0.63906313  0.33917013    -0.24800
C438        C  0.49727756  0.64900273  0.36345909    -0.24100
C439        C  0.51024317  0.62767175  0.38316115     0.40500
C440        C  0.50346467  0.59695284  0.37988107    -0.26500
O441        O  0.45464869  0.59898957  0.31230331    -0.58400
H442        H  0.46954394  0.65535758  0.32385052     0.16200
O443        O  0.52776669  0.63690783  0.40706689    -0.59900
H444        H  0.51203011  0.58110736  0.39648121     0.14600
H445        H  0.39061017  0.51529879  0.34579477     0.46500
H446        H  0.43410536  0.60668425  0.31713940     0.41900
H447        H  0.54821214  0.64014955  0.39835964     0.45300
H448        H  0.52656843  0.53314273  0.33611883     0.36800
C449        C  0.20077543  0.46038742  0.30218690    -0.27500
C450        C  0.22913711  0.46448247  0.28857710     0.02100
C451        C  0.23077479  0.47651375  0.25906260     0.30200
C452        C  0.20418723  0.48409024  0.24350767    -0.19300
C453        C  0.17584302  0.48017855  0.25725523    -0.28700
C454        C  0.17427723  0.46786520  0.28671929     0.44300
C455        C  0.25661232  0.45449147  0.30489127     0.05400
O456        O  0.25824508  0.48091031  0.24527625    -0.57200
H457        H  0.20569147  0.49326892  0.22080428     0.18400
O458        O  0.14691192  0.46214489  0.30027387    -0.63900
H459        H  0.19915284  0.45054730  0.32460660     0.16800
C460        C  0.26447390  0.46711045  0.33309487     0.29100
C461        C  0.28949928  0.45595044  0.34898614    -0.24800
C462        C  0.30669678  0.43169791  0.33745989    -0.24100
C463        C  0.29896263  0.41943081  0.30891047     0.40500
C464        C  0.27413068  0.43084966  0.29293135    -0.26500
O465        O  0.24817304  0.49077175  0.34497216    -0.58400
H466        H  0.29511360  0.46601857  0.37066575     0.16200
O467        O  0.31546286  0.39629578  0.29632041    -0.59900
H468        H  0.26818452  0.42083649  0.27131026     0.14600
H469        H  0.14040212  0.44228501  0.29209488     0.46500
H470        H  0.23482592  0.48163569  0.36056433     0.41900
H471        H  0.33163036  0.40633048  0.28440490     0.45300
H472        H  0.26467149  0.50146432  0.25158845     0.36800
C473        C  0.28612590  0.02677984  0.52820838    -0.27500
C474        C  0.27039752  0.01271530  0.55188805     0.02100
C475        C  0.24198849  0.02396649  0.56054013     0.30200
C476        C  0.22959927  0.04896386  0.54574187    -0.19300
C477        C  0.24495988  0.06337855  0.52162226    -0.28700
C478        C  0.27384544  0.05201260  0.51335783     0.44300
C479        C  0.28342653  0.98626069  0.56771512     0.05400
O480        O  0.22594764  0.01050179  0.58350240    -0.57200
H481        H  0.20794393  0.05651804  0.55388809     0.18400
O482        O  0.29012887  0.06521234  0.49042199    -0.63900
H483        H  0.30815659  0.01836626  0.52141768     0.16800
C484        C  0.28763022  0.95858501  0.55256968     0.29100
C485        C  0.29716704  0.93307098  0.56869966    -0.24800
C486        C  0.30302837  0.93467749  0.60005016    -0.24100
C487        C  0.29963731  0.96282868  0.61493505     0.40500
C488        C  0.28970973  0.98818039  0.59879662    -0.26500
O489        O  0.28087425  0.95586225  0.52235921    -0.58400
H490        H  0.29964478  0.91187752  0.55657238     0.16200
O491        O  0.30481816  0.96570256  0.64544330    -0.59900
H492        H  0.28648036  0.00941205  0.61069830     0.14600
H493        H  0.30569201  0.07768163  0.50067647     0.46500
H494        H  0.30045541  0.95832067  0.51163859     0.41900
H495        H  0.32610056  0.97254837  0.64711930     0.45300
H496        H  0.21470230  0.99374732  0.57369959     0.36800
C497        C  0.29995930  0.26302608  0.42870765    -0.27500
C498        C  0.30656961  0.25156948  0.45757902     0.02100
C499        C  0.33059380  0.26421974  0.47411809     0.30200
C500        C  0.34792361  0.28756163  0.46160179    -0.19300
C501        C  0.34176331  0.29894714  0.43244264    -0.28700
C502        C  0.31718687  0.28653280  0.41613742     0.44300
C503        C  0.28973570  0.22502972  0.46933790     0.05400
O504        O  0.33746770  0.25375619  0.50252835    -0.57200
H505        H  0.36632916  0.29672755  0.47491546     0.18400
O506        O  0.30998086  0.29677159  0.38773989    -0.63900
H507        H  0.28172075  0.25326903  0.41556773     0.16800
C508        C  0.25818429  0.22574266  0.47351986     0.29100
C509        C  0.24277487  0.19955569  0.48264047    -0.24800
C510        C  0.25829161  0.17212814  0.48705984    -0.24100
C511        C  0.29011504  0.17179919  0.48363093     0.40500
C512        C  0.30545403  0.19811242  0.47500486    -0.26500
O513        O  0.24229601  0.25200646  0.46902555    -0.58400
H514        H  0.21847280  0.20061604  0.48561037     0.16200
O515        O  0.30625919  0.14542167  0.48604841    -0.59900
H516        H  0.32970696  0.19714803  0.47148147     0.14600
H517        H  0.29430191  0.31250681  0.39105387     0.46500
H518        H  0.23270076  0.24968490  0.44885184     0.41900
H519        H  0.31748071  0.14714586  0.50543094     0.45300
H520        H  0.32378143  0.26492281  0.51646185     0.36800
C521        C  0.50105305  0.03468103  0.12981118    -0.27500
C522        C  0.51997441  0.05715747  0.14186754     0.02100
C523        C  0.54848495  0.04882251  0.15342514     0.30200
C524        C  0.55855814  0.01883027  0.15067570    -0.19300
C525        C  0.54075602  0.99713038  0.13581267    -0.28700
C526        C  0.51132572  0.00493597  0.12653699     0.44300
C527        C  0.51203633  0.08945301  0.13731628     0.05400
O528        O  0.56757523  0.07020759  0.16528925    -0.57200
H529        H  0.58122941  0.01312363  0.15800120     0.18400
O530        O  0.49300351  0.98399508  0.11281157    -0.63900
H531        H  0.47893076  0.04066366  0.12114372     0.16800
C532        C  0.50712492  0.10020096  0.10770598     0.29100
C533        C  0.50184535  0.13084257  0.10272463    -0.24800
C534        C  0.50177970  0.15160372  0.12682426    -0.24100
C535        C  0.50590340  0.14095741  0.15659826     0.40500
C536        C  0.51112978  0.10999533  0.16170418    -0.26500
O537        O  0.50831856  0.08100425  0.08324367    -0.58400
H538        H  0.49813734  0.13848277  0.07970811     0.16200
O539        O  0.50565236  0.16063037  0.18067232    -0.59900
H540        H  0.51487302  0.10206708  0.18460593     0.14600
H541        H  0.48260075  0.97344020  0.12968007     0.46500
H542        H  0.53003645  0.07968703  0.07774987     0.41900
H543        H  0.52682808  0.16777978  0.18259362     0.45300
H544        H  0.57878277  0.07847776  0.14767131     0.36800
C545        C  0.49519407  0.28970566  0.20677571    -0.27500
C546        C  0.46677373  0.28678136  0.22082409     0.02100
C547        C  0.44615440  0.26536226  0.20928357     0.30200
C548        C  0.45333595  0.24860127  0.18340746    -0.19300
C549        C  0.48147444  0.25181725  0.16897274    -0.28700
C550        C  0.50281908  0.27207576  0.18141502     0.44300
C551        C  0.45817684  0.30643783  0.24691382     0.05400
O552        O  0.41865241  0.26077935  0.22297965    -0.57200
H553        H  0.43631704  0.23355144  0.17429387     0.18400
O554        O  0.53114348  0.27496864  0.16901818    -0.63900
H555        H  0.51140455  0.30603807  0.21513746     0.16800
C556        C  0.47727786  0.31024586  0.27222234     0.29100
C557        C  0.46729667  0.32711415  0.29731624    -0.24800
C558        C  0.43823842  0.33995338  0.29776022    -0.24100
C559        C  0.41962917  0.33704690  0.27214866     0.40500
C560        C  0.42977474  0.32079210  0.24690583    -0.26500
O561        O  0.50485622  0.29604485  0.27345527    -0.58400
H562        H  0.48187410  0.32922816  0.31692154     0.16200
O563        O  0.39142346  0.34998843  0.27157041    -0.59900
H564        H  0.41513374  0.31904854  0.22732537     0.14600
H565        H  0.54293680  0.25774250  0.17719669     0.46500
H566        H  0.52006357  0.31235474  0.27107586     0.41900
H567        H  0.39473980  0.37098856  0.26447841     0.45300
H568        H  0.42242299  0.24524210  0.23870147     0.36800
C569        C  0.87452310  0.64207904  0.94124378    -0.27500
C570        C  0.89572297  0.63799497  0.96456904     0.02100
C571        C  0.88529139  0.63460563  0.99457090     0.30200
C572        C  0.85420138  0.63332629  0.00057038    -0.19300
C573        C  0.83301640  0.63562236  0.97713554    -0.28700
C574        C  0.84336806  0.64093668  0.94736424     0.44300
C575        C  0.92840160  0.63465289  0.95717529     0.05400
O576        O  0.90544161  0.63240364  0.01811759    -0.57200
H577        H  0.84684717  0.62851516  0.02336789     0.18400
O578        O  0.82324441  0.64378691  0.92393366    -0.63900
H579        H  0.88213596  0.64483427  0.91805087     0.16800
C580        C  0.94415353  0.60834536  0.96571862     0.29100
C581        C  0.97468900  0.60498183  0.95841724    -0.24800
C582        C  0.99025375  0.62706785  0.94159232    -0.24100
C583        C  0.97445427  0.65346373  0.93287357     0.40500
C584        C  0.94375492  0.65700448  0.94059195    -0.26500
O585        O  0.92962620  0.58514255  0.98031671    -0.58400
H586        H  0.98592438  0.58431943  0.96525598     0.16200
O587        O  0.98828696  0.67535360  0.91580854    -0.59900
H588        H  0.93184806  0.67719216  0.93347224     0.14600
H589        H  0.81739659  0.66544506  0.92389171     0.46500
H590        H  0.92096671  0.57244377  0.96395722     0.41900
H591        H  0.99603739  0.69028359  0.93068338     0.45300
H592        H  0.90246398  0.61196548  0.02686716     0.36800
C593        C  0.10967733  0.51788587  0.04786437    -0.27500
C594        C  0.13579405  0.52709006  0.06329937     0.02100
C595        C  0.15721981  0.54495988  0.04781352     0.30200
C596        C  0.15172395  0.55422106  0.01777363    -0.19300
C597        C  0.12473648  0.54631394  0.00282154    -0.28700
C598        C  0.10394741  0.52738205  0.01814648     0.44300
C599        C  0.13895726  0.51929606  0.09604216     0.05400
O600        O  0.18382607  0.55290518  0.06167387    -0.57200
H601        H  0.16827159  0.56836504  0.00651949     0.18400
O602        O  0.07794081  0.51773027  0.00426175    -0.63900
H603        H  0.09301417  0.50400224  0.05930404     0.16800
C604        C  0.14072631  0.54219569  0.11827004     0.29100
C605        C  0.13858811  0.53485936  0.14908515    -0.24800
C606        C  0.13435813  0.50482455  0.15847096    -0.24100
C607        C  0.13385219  0.48173393  0.13641163     0.40500
C608        C  0.13613593  0.48905197  0.10550966    -0.26500
O609        O  0.14257508  0.57204711  0.11012088    -0.58400
H610        H  0.13881582  0.55292966  0.16572115     0.16200
O611        O  0.12918924  0.45219393  0.14460087    -0.59900
H612        H  0.13442254  0.47115708  0.08878272     0.14600
H613        H  0.06169976  0.53104822  0.01224892     0.46500
H614        H  0.12134405  0.57883187  0.10770615     0.41900
H615        H  0.10689838  0.44974466  0.14542736     0.45300
H616        H  0.18288705  0.57516792  0.06429850     0.36800
C617        C  0.99964488  0.70324432  0.71349008    -0.27500
C618        C  0.02961890  0.70510939  0.72375825     0.02100
C619        C  0.05003353  0.72402611  0.70837724     0.30200
C620        C  0.04062377  0.74020942  0.68280354    -0.19300
C621        C  0.01066720  0.73836801  0.67218095    -0.28700
C622        C  0.99003727  0.71975126  0.68800791     0.44300
C623        C  0.03953479  0.68734201  0.75054522     0.05400
O624        O  0.07965001  0.72578801  0.71742106    -0.57200
H625        H  0.05725793  0.75360904  0.67082450     0.18400
O626        O  0.96023169  0.71844472  0.67951855    -0.63900
H627        H  0.98357004  0.68909904  0.72542507     0.16800
C628        C  0.04763265  0.70188412  0.77771700     0.29100
C629        C  0.05774076  0.68493398  0.80252568    -0.24800
C630        C  0.05998952  0.65316453  0.80099282    -0.24100
C631        C  0.05162995  0.63862169  0.77365449     0.40500
C632        C  0.04147613  0.65570338  0.74882049    -0.26500
O633        O  0.04569200  0.73274445  0.78028237    -0.58400
H634        H  0.06384982  0.69684921  0.82309750     0.16200
O635        O  0.05323910  0.60777190  0.77083383    -0.59900
H636        H  0.03533009  0.64421326  0.72800915     0.14600
H637        H  0.95716747  0.69766175  0.67157952     0.46500
H638        H  0.02450736  0.73684357  0.78649799     0.41900
H639        H  0.03287497  0.60031859  0.77658992     0.45300
H640        H  0.08127823  0.74522743  0.72854789     0.36800
C641        C  0.17870304  0.78253706  0.64953812    -0.27500
C642        C  0.16679611  0.78678770  0.62045585     0.02100
C643        C  0.18610100  0.79577772  0.59683230     0.30200
C644        C  0.21678494  0.80120703  0.60255665    -0.19300
C645        C  0.22891627  0.79775311  0.63185006    -0.28700
C646        C  0.20945938  0.78780870  0.65538322     0.44300
C647        C  0.13388977  0.78350392  0.61528436     0.05400
O648        O  0.17496280  0.80014926  0.56819343    -0.57200
H649        H  0.23098395  0.80868175  0.58399307     0.18400
O650        O  0.21981205  0.78439406  0.68445775    -0.63900
H651        H  0.16393013  0.77573357  0.66793598     0.16800
C652        C  0.12072444  0.75499059  0.61019545     0.29100
C653        C  0.08940830  0.75256680  0.60558857    -0.24800
C654        C  0.07083163  0.77831142  0.60685643    -0.24100
C655        C  0.08407689  0.80680403  0.61210384     0.40500
C656        C  0.11544697  0.80929230  0.61580070    -0.26500
O657        O  0.13828695  0.72942293  0.60978310    -0.58400
H658        H  0.07944645  0.73042865  0.60226417     0.16200
O659        O  0.06657280  0.83240468  0.61317112    -0.59900
H660        H  0.12537076  0.83136511  0.61966001     0.14600
H661        H  0.22471190  0.76259035  0.68637057     0.46500
H662        H  0.13787318  0.72177839  0.63091349     0.41900
H663        H  0.06494700  0.83772379  0.63497860     0.45300
H664        H  0.17666017  0.78017083  0.55807160     0.36800
C665        C  0.33556754  0.45522007  0.61119371    -0.27500
C666        C  0.34954382  0.47244420  0.58843717     0.02100
C667        C  0.36329556  0.50014147  0.59618917     0.30200
C668        C  0.36492561  0.50904910  0.62662202    -0.19300
C669        C  0.35323537  0.49045749  0.64950228    -0.28700
C670        C  0.33772585  0.46386514  0.64162475     0.44300
C671        C  0.35379260  0.45926766  0.55782394     0.05400
O672        O  0.37730831  0.51742050  0.57452158    -0.57200
H673        H  0.37763435  0.52913345  0.63250473     0.18400
O674        O  0.32599488  0.44544671  0.66369406    -0.63900
H675        H  0.32464958  0.43402739  0.60552529     0.16800
C676        C  0.36935752  0.43169623  0.55438558     0.29100
C677        C  0.37617693  0.42073203  0.52547735    -0.24800
C678        C  0.36768570  0.43676785  0.49935303    -0.24100
C679        C  0.35125522  0.46403554  0.50283908     0.40500
C680        C  0.34448374  0.47504994  0.53192670    -0.26500
O681        O  0.37974440  0.41624754  0.57922181    -0.58400
H682        H  0.38880071  0.39979121  0.52367588     0.16200
O683        O  0.34173077  0.48018065  0.47812723    -0.59900
H684        H  0.33234709  0.49622832  0.53429205     0.14600
H685        H  0.34170833  0.42984094  0.66729237     0.46500
H686        H  0.36554868  0.39907661  0.58187500     0.41900
H687        H  0.35771790  0.49547948  0.47457055     0.45300
H688        H  0.39817651  0.50932644  0.57302434     0.36800
C689        C  0.39882702  0.62236148  0.72252625    -0.27500
C690        C  0.38451226  0.63568216  0.69761337     0.02100
C691        C  0.37101573  0.61720603  0.67550520     0.30200
C692        C  0.37170072  0.58576546  0.67861163    -0.19300
C693        C  0.38560062  0.57220916  0.70375448    -0.28700
C694        C  0.39936355  0.59087551  0.72580503     0.44300
C695        C  0.38197059  0.66888704  0.69562917     0.05400
O696        O  0.35633822  0.62974754  0.65121827    -0.57200
H697        H  0.36076561  0.57203312  0.66153183     0.18400
O698        O  0.41212388  0.57878769  0.75135849    -0.63900
H699        H  0.40897426  0.63647890  0.73983887     0.16800
C700        C  0.36273396  0.68482003  0.71543759     0.29100
C701        C  0.35757391  0.71570054  0.71098126    -0.24800
C702        C  0.37197571  0.73125398  0.68726791    -0.24100
C703        C  0.39254881  0.71550745  0.66843853     0.40500
C704        C  0.39708742  0.68443777  0.67248463    -0.26500
O705        O  0.34741782  0.66997712  0.73800653    -0.58400
H706        H  0.34176618  0.72738248  0.72573443     0.16200
O707        O  0.40659234  0.72969847  0.64464566    -0.59900
H708        H  0.41188470  0.67227617  0.65707787     0.14600
H709        H  0.39516535  0.57646146  0.76593951     0.46500
H710        H  0.35995528  0.67268801  0.75642132     0.41900
H711        H  0.42678456  0.73556185  0.65242577     0.45300
H712        H  0.33514515  0.63264881  0.65807218     0.36800
C713        C  0.28367778  0.55160125  0.77299684    -0.27500
C714        C  0.26496222  0.52840906  0.78385533     0.02100
C715        C  0.27161831  0.49821074  0.77601249     0.30200
C716        C  0.29741329  0.49153002  0.75861878    -0.19300
C717        C  0.31643872  0.51475422  0.74829874    -0.28700
C718        C  0.30905882  0.54501070  0.75512252     0.44300
C719        C  0.23883578  0.53619229  0.80359586     0.05400
O720        O  0.25335370  0.47508916  0.78566506    -0.57200
H721        H  0.30269257  0.46817189  0.75331030     0.18400
O722        O  0.32751473  0.56819870  0.74601832    -0.63900
H723        H  0.27866719  0.57495670  0.77857247     0.16800
C724        C  0.24314009  0.55097766  0.83155824     0.29100
C725        C  0.21813202  0.55985914  0.84911991    -0.24800
C726        C  0.18843001  0.55464428  0.83901861    -0.24100
C727        C  0.18430368  0.53904804  0.81121649     0.40500
C728        C  0.20936083  0.52989303  0.79393726    -0.26500
O729        O  0.27179559  0.55626612  0.84217635    -0.58400
H730        H  0.22207669  0.57141069  0.87042339     0.16200
O731        O  0.15590538  0.53216873  0.80081585    -0.59900
H732        H  0.20572529  0.51839638  0.77253292     0.14600
H733        H  0.31731319  0.57726477  0.72823035     0.46500
H734        H  0.27594906  0.57780713  0.83753110     0.41900
H735        H  0.15108778  0.54812297  0.78581584     0.45300
H736        H  0.26227529  0.46824863  0.80508651     0.36800
C737        C  0.37699547  0.86134003  0.04455772    -0.27500
C738        C  0.39755893  0.85728327  0.02065877     0.02100
C739        C  0.38660967  0.85433597  0.99091056     0.30200
C740        C  0.35550436  0.85680892  0.98527111    -0.19300
C741        C  0.33503405  0.86316083  0.00888378    -0.28700
C742        C  0.34599502  0.86416331  0.03893233     0.44300
C743        C  0.43036178  0.85859817  0.02712750     0.05400
O744        O  0.40617822  0.84899830  0.96729645    -0.57200
H745        H  0.34769760  0.85497565  0.96215854     0.18400
O746        O  0.32672341  0.86821626  0.06300954    -0.63900
H747        H  0.38514450  0.86333573  0.06762637     0.16800
C748        C  0.44780260  0.88301088  0.01659459     0.29100
C749        C  0.47751869  0.88669394  0.02664940    -0.24800
C750        C  0.49038170  0.86643392  0.04751495    -0.24100
C751        C  0.47338221  0.84105126  0.05680972     0.40500
C752        C  0.44353812  0.83741773  0.04671968    -0.26500
O753        O  0.43549715  0.90430333  0.99769874    -0.58400
H754        H  0.49014731  0.90620921  0.01890842     0.16200
O755        O  0.48512581  0.82039202  0.07672783    -0.59900
H756        H  0.43027221  0.81856346  0.05501273     0.14600
H757        H  0.31910886  0.84771461  0.06791505     0.46500
H758        H  0.42696125  0.92001952  0.01131661     0.41900
H759        H  0.47899704  0.82766829  0.09712120     0.45300
H760        H  0.40700274  0.86819404  0.95573428     0.36800
C761        C  0.28057222  0.84666630  0.81180047    -0.27500
C762        C  0.28915372  0.87413020  0.82514096     0.02100
C763        C  0.30224857  0.89674950  0.80694766     0.30200
C764        C  0.30750785  0.89130046  0.77609957    -0.19300
C765        C  0.29974005  0.86340669  0.76283829    -0.28700
C766        C  0.28543688  0.84128514  0.78097416     0.44300
C767        C  0.28540060  0.87825209  0.85825532     0.05400
O768        O  0.31040621  0.92407851  0.81920147    -0.57200
H769        H  0.31838517  0.90872750  0.76274501     0.18400
O770        O  0.27670591  0.81396695  0.76909637    -0.63900
H771        H  0.27068021  0.82893416  0.82551790     0.16800
C772        C  0.25721755  0.87326518  0.87236371     0.29100
C773        C  0.25460407  0.87558270  0.90386916    -0.24800
C774        C  0.27988223  0.88241115  0.92164025    -0.24100
C775        C  0.30790222  0.88797631  0.90767924     0.40500
C776        C  0.31057711  0.88574686  0.87614709    -0.26500
O777        O  0.23201268  0.86686048  0.85543720    -0.58400
H778        H  0.23286553  0.87157718  0.91454175     0.16200
O779        O  0.33275545  0.89553429  0.92458270    -0.59900
H780        H  0.33246367  0.88937384  0.86566924     0.14600
H781        H  0.25606283  0.81740158  0.76109024     0.46500
H782        H  0.22752034  0.84522985  0.85934037     0.41900
H783        H  0.33090106  0.91758836  0.92830800     0.45300
H784        H  0.29215453  0.93700568  0.81745160     0.36800
C785        C  0.16323506  0.74355347  0.93616337    -0.27500
C786        C  0.18754276  0.73943192  0.95607936     0.02100
C787        C  0.19432372  0.71023148  0.96657403     0.30200
C788        C  0.17739356  0.68544976  0.95645574    -0.19300
C789        C  0.15318575  0.68935207  0.93616246    -0.28700
C790        C  0.14585824  0.71889206  0.92647504     0.44300
C791        C  0.20620744  0.76566490  0.96508766     0.05400
O792        O  0.21767236  0.70565713  0.98646648    -0.57200
H793        H  0.18323380  0.66308909  0.96456200     0.18400
O794        O  0.12263059  0.72383084  0.90653119    -0.63900
H795        H  0.15778391  0.76601124  0.92803147     0.16800
C796        C  0.22445333  0.78054097  0.94367253     0.29100
C797        C  0.24136858  0.80587267  0.95224539    -0.24800
C798        C  0.23987409  0.81719460  0.98198394    -0.24100
C799        C  0.22207115  0.80181157  0.00362492     0.40500
C800        C  0.20561183  0.77606346  0.99511885    -0.26500
O801        O  0.22616087  0.77018413  0.91438125    -0.58400
H802        H  0.25478085  0.81729083  0.93521204     0.16200
O803        O  0.22124530  0.81135369  0.03324936    -0.59900
H804        H  0.19189137  0.76451889  0.01186287     0.14600
H805        H  0.10509054  0.72965771  0.91932153     0.46500
H806        H  0.21218084  0.78324809  0.90270120     0.41900
H807        H  0.20045932  0.81918752  0.03655925     0.45300
H808        H  0.23612237  0.70446291  0.97367976     0.36800
C809        C  0.72723649  0.54753131  0.91548840    -0.27500
C810        C  0.71945832  0.52008306  0.92941634     0.02100
C811        C  0.72092360  0.51825376  0.96127058     0.30200
C812        C  0.73187346  0.54253133  0.97834232    -0.19300
C813        C  0.74168093  0.56949744  0.96444379    -0.28700
C814        C  0.73772271  0.57217722  0.93268699     0.44300
C815        C  0.71023735  0.49318893  0.91107936     0.05400
O816        O  0.71166258  0.49266242  0.97616630    -0.57200
H817        H  0.73197568  0.53970608  0.00256628     0.18400
O818        O  0.74412723  0.59889009  0.91822960    -0.63900
H819        H  0.72596091  0.54976366  0.89109486     0.16800
C820        C  0.68819604  0.49499493  0.88803211     0.29100
C821        C  0.67806228  0.46855551  0.87349920    -0.24800
C822        C  0.68940349  0.44005740  0.88176109    -0.24100
C823        C  0.71257299  0.43849981  0.90362309     0.40500
C824        C  0.72293078  0.46482783  0.91775520    -0.26500
O825        O  0.67497579  0.52213757  0.88094585    -0.58400
H826        H  0.66040538  0.47026342  0.85660051     0.16200
O827        O  0.72510392  0.41128074  0.91167339    -0.59900
H828        H  0.74069945  0.46295875  0.93452018     0.14600
H829        H  0.76268325  0.59497116  0.90616737     0.46500
H830        H  0.68329322  0.52765489  0.86080064     0.41900
H831        H  0.74142617  0.40759971  0.89667587     0.45300
H832        H  0.68948130  0.49495698  0.97861577     0.36800
C833        C  0.59053493  0.29912118  0.98838131    -0.27500
C834        C  0.56090671  0.28815763  0.98535724     0.02100
C835        C  0.54675241  0.28952475  0.95688500     0.30200
C836        C  0.56255071  0.30074494  0.93181427    -0.19300
C837        C  0.59276560  0.31055324  0.93441194    -0.28700
C838        C  0.60647725  0.31020101  0.96329910     0.44300
C839        C  0.54573666  0.27354615  0.01151539     0.05400
O840        O  0.51783300  0.27897539  0.95306349    -0.57200
H841        H  0.55123456  0.30094497  0.91006417     0.18400
O842        O  0.63580989  0.31944437  0.96720435    -0.63900
H843        H  0.60159538  0.29858451  0.01026007     0.16800
C844        C  0.55957465  0.24921906  0.02649738     0.29100
C845        C  0.54482295  0.23491999  0.05053427    -0.24800
C846        C  0.51574108  0.24406779  0.06014482    -0.24100
C847        C  0.50264698  0.26961147  0.04590300     0.40500
C848        C  0.51734473  0.28367917  0.02151746    -0.26500
O849        O  0.58720929  0.23851167  0.01709373    -0.58400
H850        H  0.55708432  0.21716491  0.06184837     0.16200
O851        O  0.47536470  0.28098418  0.05547939    -0.59900
H852        H  0.50668661  0.30284249  0.01060529     0.14600
H853        H  0.63438137  0.34097146  0.97341720     0.46500
H854        H  0.60185076  0.24567318  0.03250373     0.41900
H855        H  0.48045927  0.29676162  0.07063916     0.45300
H856        H  0.52008464  0.25705536  0.94881081     0.36800
C857        C  0.49585478  0.39155583  0.78756079    -0.27500
C858        C  0.49760054  0.42160534  0.77759536     0.02100
C859        C  0.52561874  0.43661613  0.77853328     0.30200
C860        C  0.55135127  0.42158722  0.78918804    -0.19300
C861        C  0.54987767  0.39132415  0.79903168    -0.28700
C862        C  0.52155822  0.37646698  0.79838255     0.44300
C863        C  0.47036588  0.43693890  0.76540062     0.05400
O864        O  0.52821570  0.46586733  0.76856058    -0.57200
H865        H  0.57263213  0.43370632  0.78938333     0.18400
O866        O  0.51867298  0.34708827  0.80782917    -0.63900
H867        H  0.47439389  0.37975068  0.78703026     0.16800
C868        C  0.45511388  0.42521510  0.74008468     0.29100
C869        C  0.43062154  0.44090166  0.72764497    -0.24800
C870        C  0.42094674  0.46892856  0.73972426    -0.24100
C871        C  0.43518010  0.47943398  0.76648424     0.40500
C872        C  0.45991628  0.46382384  0.77868600    -0.26500
O873        O  0.46432376  0.39859887  0.72692651    -0.58400
H874        H  0.41951036  0.43045566  0.70862678     0.16200
O875        O  0.42566842  0.50553479  0.78043224    -0.59900
H876        H  0.47105250  0.47279581  0.79862181     0.14600
H877        H  0.51262940  0.34845544  0.82945229     0.46500
H878        H  0.47876581  0.40460015  0.71078564     0.41900
H879        H  0.41131354  0.49889140  0.79638604     0.45300
H880        H  0.53142355  0.46424566  0.74635801     0.36800
C881        C  0.86405333  0.99776120  0.38905804    -0.27500
C882        C  0.85390813  0.02702281  0.39636114     0.02100
C883        C  0.84416679  0.04614467  0.37271690     0.30200
C884        C  0.84678515  0.03675558  0.34241459    -0.19300
C885        C  0.85839115  0.00807913  0.33517671    -0.28700
C886        C  0.86619070  0.98821366  0.35878430     0.44300
C887        C  0.85762615  0.03864709  0.42791196     0.05400
O888        O  0.83339853  0.07459768  0.37891994    -0.57200
H889        H  0.84084114  0.05232469  0.32445024     0.18400
O890        O  0.87884511  0.96059228  0.35245245    -0.63900
H891        H  0.87220730  0.98291451  0.40674435     0.16800
C892        C  0.84611931  0.02308497  0.45328511     0.29100
C893        C  0.85276797  0.03322243  0.48281162    -0.24800
C894        C  0.87120757  0.05874616  0.48770233    -0.24100
C895        C  0.88214346  0.07457721  0.46202459     0.40500
C896        C  0.87525113  0.06455357  0.43271904    -0.26500
O897        O  0.82777177  0.99837964  0.44940844    -0.58400
H898        H  0.84363494  0.02084427  0.50190627     0.16200
O899        O  0.89988862  0.09982742  0.46508711    -0.59900
H900        H  0.88465676  0.07663308  0.41354473     0.14600
H901        H  0.86152100  0.94638019  0.35111931     0.46500
H902        H  0.84044756  0.98064841  0.45471214     0.41900
H903        H  0.92101473  0.09233289  0.46399672     0.45300
H904        H  0.81170545  0.07173918  0.38388820     0.36800
C905        C  0.06107690  0.13206712  0.56419666    -0.27500
C906        C  0.06515488  0.13993260  0.53363416     0.02100
C907        C  0.03937431  0.14350824  0.51522113     0.30200
C908        C  0.01039218  0.13817874  0.52712090    -0.19300
C909        C  0.00636717  0.12925816  0.55748537    -0.28700
C910        C  0.03218321  0.12689099  0.57618045     0.44300
C911        C  0.09642514  0.14160236  0.52093836     0.05400
O912        O  0.04225416  0.15161827  0.48536915    -0.57200
H913        H  0.99106801  0.14031697  0.51222797     0.18400
O914        O  0.02956778  0.11957388  0.60627935    -0.63900
H915        H  0.08049231  0.12874344  0.57873371     0.16800
C916        C  0.11963496  0.15744491  0.53614042     0.29100
C917        C  0.14985777  0.15407592  0.52685467    -0.24800
C918        C  0.15730809  0.13526743  0.50235946    -0.24100
C919        C  0.13410528  0.12109453  0.48591171     0.40500
C920        C  0.10394554  0.12430874  0.49518721    -0.26500
O921        O  0.11294660  0.17600300  0.56023985    -0.58400
H922        H  0.16764528  0.16492450  0.53976445     0.16200
O923        O  0.14087862  0.10262342  0.46178971    -0.59900
H924        H  0.08663519  0.11168045  0.48331559     0.14600
H925        H  0.03439014  0.09769671  0.60742924     0.46500
H926        H  0.12181083  0.16602402  0.57827961     0.41900
H927        H  0.14446646  0.08236546  0.47067025     0.45300
H928        H  0.04269069  0.17403780  0.48546540     0.36800
C929        C  0.99277329  0.88832872  0.60412341    -0.27500
C930        C  0.97821437  0.89997994  0.62992758     0.02100
C931        C  0.97139639  0.88022830  0.65413368     0.30200
C932        C  0.97792866  0.84920459  0.65168026    -0.19300
C933        C  0.99107366  0.83755254  0.62519484    -0.28700
C934        C  0.99896263  0.85741750  0.60155705     0.44300
C935        C  0.96753774  0.93191851  0.62969839     0.05400
O936        O  0.95745319  0.89087712  0.67982959    -0.57200
H937        H  0.97157067  0.83408131  0.66989753     0.18400
O938        O  0.01224496  0.84662188  0.57553618    -0.63900
H939        H  0.99796238  0.90297990  0.58516261     0.16800
C940        C  0.98707764  0.95602048  0.62219752     0.29100
C941        C  0.97553989  0.98539557  0.61871489    -0.24800
C942        C  0.94446309  0.99114508  0.62208005    -0.24100
C943        C  0.92509147  0.96720986  0.63025694     0.40500
C944        C  0.93668544  0.93801182  0.63423152    -0.26500
O945        O  0.01734228  0.95097574  0.61748199    -0.58400
H946        H  0.99074324  0.00350573  0.61230044     0.16200
O947        O  0.89479313  0.97224159  0.63485286    -0.59900
H948        H  0.92123596  0.91981222  0.63972036     0.14600
H949        H  0.99550352  0.84436740  0.56078352     0.46500
H950        H  0.02669130  0.95235187  0.63784798     0.41900
H951        H  0.88479565  0.96540776  0.61595009     0.45300
H952        H  0.97413663  0.89580840  0.69396056     0.36800
C953        C  0.51370167  0.95390663  0.75330029    -0.27500
C954        C  0.51438825  0.93932138  0.72504114     0.02100
C955        C  0.54090036  0.94101596  0.70744641     0.30200
C956        C  0.56643960  0.95615708  0.71857900    -0.19300
C957        C  0.56640412  0.96996457  0.74750409    -0.28700
C958        C  0.53918445  0.96910986  0.76448916     0.44300
C959        C  0.48699478  0.92324828  0.71383159     0.05400
O960        O  0.54147030  0.92944586  0.67853337    -0.57200
H961        H  0.58570850  0.95720319  0.70368968     0.18400
O962        O  0.53706442  0.98372473  0.79190435    -0.63900
H963        H  0.49329607  0.95336031  0.76694491     0.16800
C964        C  0.48836752  0.89299894  0.70373370     0.29100
C965        C  0.46232557  0.87860233  0.69283819    -0.24800
C966        C  0.43422982  0.89358845  0.69236932    -0.24100
C967        C  0.43281426  0.92372305  0.70323375     0.40500
C968        C  0.45897741  0.93817083  0.71376611    -0.26500
O969        O  0.51493389  0.87701713  0.70497159    -0.58400
H970        H  0.46415456  0.85540301  0.68510385     0.16200
O971        O  0.40597518  0.93929474  0.70409339    -0.59900
H972        H  0.45738725  0.96132823  0.72171325     0.14600
H973        H  0.53659129  0.96749574  0.80738437     0.46500
H974        H  0.51589384  0.86892831  0.72588995     0.41900
H975        H  0.40555356  0.95124510  0.68511509     0.45300
H976        H  0.55647848  0.91274095  0.67890869     0.36800
C977        C  0.60412890  0.97105967  0.94744943    -0.27500
C978        C  0.63132077  0.96281949  0.93318593     0.02100
C979        C  0.65320371  0.94696958  0.95002489     0.30200
C980        C  0.64742017  0.93908883  0.98039081    -0.19300
C981        C  0.61966325  0.94631570  0.99446545    -0.28700
C982        C  0.59806513  0.96281884  0.97754808     0.44300
C983        C  0.63563306  0.96998226  0.90041584     0.05400
O984        O  0.68056983  0.93971187  0.93717750    -0.57200
H985        H  0.66454435  0.92663498  0.99268431     0.18400
O986        O  0.57081796  0.97103485  0.99004742    -0.63900
H987        H  0.58703009  0.98326711  0.93484727     0.16800
C988        C  0.63866717  0.94676757  0.87865314     0.29100
C989        C  0.63815104  0.95366992  0.84761588    -0.24800
C990        C  0.63440279  0.98360280  0.83756554    -0.24100
C991        C  0.63266860  0.00694203  0.85931890     0.40500
C992        C  0.63327468  0.00004719  0.89039688    -0.26500
O993        O  0.64028255  0.91706892  0.88741131    -0.58400
H994        H  0.63915368  0.93535541  0.83127681     0.16200
O995        O  0.62824477  0.03633749  0.85056358    -0.59900
H996        H  0.63064550  0.01816221  0.90677818     0.14600
H997        H  0.55629356  0.95537955  0.98323445     0.46500
H998        H  0.61901380  0.91000523  0.88824299     0.41900
H999        H  0.60596580  0.03911575  0.85034132     0.45300
H1000       H  0.68028056  0.91743955  0.93451933     0.36800
C1001       C  0.70037228  0.02220011  0.68944707    -0.27500
C1002       C  0.72828932  0.02430472  0.70418969     0.02100
C1003       C  0.72978514  0.01800025  0.73547618     0.30200
C1004       C  0.70355870  0.00973195  0.75147938    -0.19300
C1005       C  0.67553036  0.00754744  0.73669925    -0.28700
C1006       C  0.67417725  0.01426329  0.70532803     0.44300
C1007       C  0.75519641  0.03472215  0.68688021     0.05400
O1008       O  0.75674395  0.02003298  0.75064871    -0.57200
H1009       H  0.70516302  0.00501242  0.77550132     0.18400
O1010       O  0.64718372  0.01451753  0.69005580    -0.63900
H1011       H  0.69865093  0.02779543  0.66561192     0.16800
C1012       C  0.76484484  0.01967385  0.66037635     0.29100
C1013       C  0.78947515  0.03079812  0.64367569    -0.24800
C1014       C  0.80460044  0.05731642  0.65263959    -0.24100
C1015       C  0.79483339  0.07226624  0.67936734     0.40500
C1016       C  0.77039691  0.06095482  0.69609528    -0.26500
O1017       O  0.75082535  0.99359075  0.65110006    -0.58400
H1018       H  0.79653838  0.01869309  0.62348398     0.16200
O1019       O  0.80877070  0.09811535  0.68938577    -0.59900
H1020       H  0.76296842  0.07304254  0.71617871     0.14600
H1021       H  0.63870078  0.03500761  0.69335146     0.46500
H1022       H  0.73821841  0.99953046  0.63350040     0.41900
H1023       H  0.82463647  0.09112148  0.70358622     0.45300
H1024       H  0.76663977  0.00009964  0.74769700     0.36800
C1025       C  0.59386869  0.18489224  0.79532463    -0.27500
C1026       C  0.61888092  0.16529928  0.79757005     0.02100
C1027       C  0.64732943  0.17772178  0.80496254     0.30200
C1028       C  0.65060777  0.20889952  0.80893017    -0.19300
C1029       C  0.62573560  0.22856743  0.80665284    -0.28700
C1030       C  0.59704978  0.21619635  0.80006943     0.44300
C1031       C  0.61565074  0.13216012  0.79159494     0.05400
O1032       O  0.67218470  0.15954095  0.80880064    -0.57200
H1033       H  0.67280430  0.21761889  0.81453510     0.18400
O1034       O  0.57202208  0.23440520  0.79794851    -0.63900
H1035       H  0.57183626  0.17601872  0.78938950     0.16800
C1036       C  0.59222453  0.11477171  0.80470265     0.29100
C1037       C  0.59080642  0.08343884  0.79945636    -0.24800
C1038       C  0.61303164  0.06881086  0.78199245    -0.24100
C1039       C  0.63607363  0.08617659  0.76855911     0.40500
C1040       C  0.63698917  0.11747420  0.77302611    -0.26500
O1041       O  0.57109367  0.12793811  0.82333335    -0.58400
H1042       H  0.57288814  0.07036443  0.80989209     0.16200
O1043       O  0.65782315  0.07282187  0.75083257    -0.59900
H1044       H  0.65467132  0.13032183  0.76193504     0.14600
H1045       H  0.57070406  0.23997004  0.77622937     0.46500
H1046       H  0.58038164  0.12798726  0.84376496     0.41900
H1047       H  0.65131650  0.07641785  0.72968618     0.45300
H1048       H  0.67123712  0.15282397  0.83020687     0.36800
C1049       C  0.54085362  0.35608072  0.48231497    -0.27500
C1050       C  0.56494802  0.35378180  0.46166764     0.02100
C1051       C  0.55894635  0.35391006  0.43042410     0.30200
C1052       C  0.52930121  0.35753411  0.42013269    -0.19300
C1053       C  0.50514458  0.36115835  0.44064853    -0.28700
C1054       C  0.51101780  0.35940097  0.47202486     0.44300
C1055       C  0.59649129  0.35579704  0.47242478     0.05400
O1056       O  0.58212306  0.35202558  0.40975807    -0.57200
H1057       H  0.52534606  0.35851694  0.39592187     0.18400
O1058       O  0.48821495  0.36325217  0.49280503    -0.63900
H1059       H  0.54535048  0.35645033  0.50644692     0.16800
C1060       C  0.60785113  0.38384380  0.48213395     0.29100
C1061       C  0.63860859  0.38705287  0.48827379    -0.24800
C1062       C  0.65846891  0.36243924  0.48525902    -0.24100
C1063       C  0.64696028  0.33395721  0.47704718     0.40500
C1064       C  0.61609017  0.33084597  0.47019854    -0.26500
O1065       O  0.58936586  0.40873200  0.48375512    -0.58400
H1066       H  0.64715405  0.40906960  0.49487050     0.16200
O1067       O  0.66593932  0.30962685  0.47381541    -0.59900
H1068       H  0.60755750  0.30920420  0.46248539     0.14600
H1069       H  0.48204751  0.34249557  0.49861084     0.46500
H1070       H  0.58228583  0.40949336  0.50510012     0.41900
H1071       H  0.66465624  0.29868722  0.49337215     0.45300
H1072       H  0.58868685  0.37318871  0.40635721     0.36800
C1073       C  0.67691233  0.36862119  0.61107573    -0.27500
C1074       C  0.70024303  0.37482529  0.63165326     0.02100
C1075       C  0.72838873  0.38497784  0.62068707     0.30200
C1076       C  0.73299808  0.38842708  0.58947425    -0.19300
C1077       C  0.70981631  0.38166460  0.56887089    -0.28700
C1078       C  0.68152011  0.37199727  0.57990599     0.44300
C1079       C  0.69495037  0.37052634  0.66448551     0.05400
O1080       O  0.75160677  0.39124908  0.64027377    -0.57200
H1081       H  0.75499449  0.39553361  0.58129022     0.18400
O1082       O  0.65826074  0.36559872  0.56041375    -0.63900
H1083       H  0.65517193  0.36071498  0.61920447     0.16800
C1084       C  0.67198881  0.38667151  0.67957858     0.29100
C1085       C  0.66709433  0.38220142  0.71056637    -0.24800
C1086       C  0.68435071  0.36110970  0.72688251    -0.24100
C1087       C  0.70737459  0.34488226  0.71169272     0.40500
C1088       C  0.71258951  0.34977191  0.68074488    -0.26500
O1089       O  0.65469508  0.40740923  0.66432792    -0.58400
H1090       H  0.64919527  0.39482035  0.72168879     0.16200
O1091       O  0.72487344  0.32421288  0.72679324    -0.59900
H1092       H  0.73021051  0.33704977  0.66929272     0.14600
H1093       H  0.64763510  0.38511929  0.55738948     0.46500
H1094       H  0.63508838  0.39716467  0.66058484     0.41900
H1095       H  0.74310992  0.33553974  0.73323392     0.45300
H1096       H  0.74780084  0.41219099  0.64744200     0.36800
C1097       C  0.79592049  0.22239079  0.56402675    -0.27500
C1098       C  0.80674046  0.24038022  0.54027521     0.02100
C1099       C  0.83478058  0.23338489  0.52681940     0.30200
C1100       C  0.85177749  0.20889012  0.53735890    -0.19300
C1101       C  0.84130265  0.19099184  0.56149420    -0.28700
C1102       C  0.81286282  0.19785622  0.57465287     0.44300
C1103       C  0.78948174  0.26736310  0.53064721     0.05400
O1104       O  0.84587704  0.25055774  0.50345990    -0.57200
H1105       H  0.87338103  0.20411190  0.52672986     0.18400
O1106       O  0.80139083  0.18094912  0.59803279    -0.63900
H1107       H  0.77446987  0.22770868  0.57472725     0.16800
C1108       C  0.76010407  0.26497477  0.51861563     0.29100
C1109       C  0.74467909  0.29105064  0.50919377    -0.24800
C1110       C  0.75819364  0.31964130  0.51176242    -0.24100
C1111       C  0.78724275  0.32199667  0.52475505     0.40500
C1112       C  0.80264920  0.29597074  0.53391319    -0.26500
O1113       O  0.74677067  0.23720323  0.51505233    -0.58400
H1114       H  0.72224453  0.28891333  0.49964079     0.16200
O1115       O  0.80000810  0.34975017  0.53023967    -0.59900
H1116       H  0.82487611  0.29815393  0.54399473     0.14600
H1117       H  0.78918529  0.16490832  0.58818168     0.46500
H1118       H  0.73287993  0.23508206  0.53261412     0.41900
H1119       H  0.81667460  0.35166959  0.51526921     0.45300
H1120       H  0.83732165  0.24142255  0.48480696     0.36800
C1121       C  0.04582865  0.44361966  0.84918434    -0.27500
C1122       C  0.01998237  0.43510280  0.86565986     0.02100
C1123       C  0.00458734  0.45704572  0.88304017     0.30200
C1124       C  0.01616298  0.48632708  0.88540873    -0.19300
C1125       C  0.04281507  0.49448949  0.87015631    -0.28700
C1126       C  0.05726190  0.47312271  0.85129238     0.44300
C1127       C  0.01156020  0.40273180  0.86794909     0.05400
O1128       O  0.97888627  0.44970506  0.89886911    -0.57200
H1129       H  0.00465275  0.50254716  0.89985344     0.18400
O1130       O  0.08358310  0.48022636  0.83640339    -0.63900
H1131       H  0.05818292  0.42693428  0.83606329     0.16800
C1132       C  0.00584078  0.38471347  0.84220823     0.29100
C1133       C  0.99933831  0.35377153  0.84559143    -0.24800
C1134       C  0.99891488  0.34044902  0.87445571    -0.24100
C1135       C  0.00361069  0.35893486  0.90019956     0.40500
C1136       C  0.01025102  0.38952408  0.89674994    -0.26500
O1137       O  0.00581242  0.39732022  0.81383466    -0.58400
H1138       H  0.99528965  0.34007806  0.82562008     0.16200
O1139       O  0.00153910  0.34747353  0.92900519    -0.59900
H1140       H  0.01466543  0.40301583  0.91679966     0.14600
H1141       H  0.09998982  0.47573074  0.85100858     0.46500
H1142       H  0.02530044  0.39114941  0.80450687     0.41900
H1143       H  0.97960208  0.34717154  0.93372886     0.45300
H1144       H  0.96210688  0.45218128  0.88419718     0.36800
C1145       C  0.87144811  0.31788450  0.88362887    -0.27500
C1146       C  0.85187477  0.29290864  0.88477232     0.02100
C1147       C  0.86405226  0.26374107  0.88866416     0.30200
C1148       C  0.89534308  0.25977159  0.89091797    -0.19300
C1149       C  0.91494867  0.28458608  0.88888584    -0.28700
C1150       C  0.90284155  0.31385066  0.88547746     0.44300
C1151       C  0.81902045  0.29708388  0.87973308     0.05400
O1152       O  0.84555554  0.23887495  0.88950478    -0.57200
H1153       H  0.90440934  0.23711341  0.89318195     0.18400
O1154       O  0.92147767  0.33855721  0.88345287    -0.63900
H1155       H  0.86240646  0.34042069  0.88034777     0.16800
C1156       C  0.80117994  0.31479304  0.89938703     0.29100
C1157       C  0.77024260  0.31874898  0.89350082    -0.24800
C1158       C  0.75674461  0.30559001  0.86777871    -0.24100
C1159       C  0.77469998  0.28723177  0.84858405     0.40500
C1160       C  0.80547625  0.28324802  0.85460110    -0.26500
O1161       O  0.81366579  0.32777034  0.92470015    -0.58400
H1162       H  0.75701946  0.33284571  0.90867551     0.16200
O1163       O  0.76257977  0.27330984  0.82360112    -0.59900
H1164       H  0.81898114  0.26954608  0.83929539     0.14600
H1165       H  0.92661032  0.34382490  0.90468368     0.46500
H1166       H  0.81738462  0.34917855  0.91913980     0.41900
H1167       H  0.75554924  0.25331101  0.83089107     0.45300
H1168       H  0.83838716  0.23761561  0.91077780     0.36800
C1169       C  0.95535092  0.15971586  0.74394507    -0.27500
C1170       C  0.94488893  0.18972616  0.74589663     0.02100
C1171       C  0.92634793  0.20100925  0.72260366     0.30200
C1172       C  0.91867392  0.18249235  0.69796791    -0.19300
C1173       C  0.92936584  0.15258945  0.69575572    -0.28700
C1174       C  0.94784065  0.14123598  0.71912277     0.44300
C1175       C  0.95436362  0.20929968  0.77173104     0.05400
O1176       O  0.91714361  0.23066956  0.72281099    -0.57200
H1177       H  0.90481129  0.19191181  0.68009536     0.18400
O1178       O  0.95781337  0.11186312  0.71847995    -0.63900
H1179       H  0.96942086  0.15056040  0.76179080     0.16800
C1180       C  0.93300122  0.22465872  0.78996277     0.29100
C1181       C  0.94266253  0.24279951  0.81417324    -0.24800
C1182       C  0.97349016  0.24521131  0.82134163    -0.24100
C1183       C  0.99485878  0.23008231  0.80302590     0.40500
C1184       C  0.98525951  0.21237610  0.77847739    -0.26500
O1185       O  0.90257482  0.22110167  0.78514105    -0.58400
H1186       H  0.92582862  0.25367553  0.82836639     0.16200
O1187       O  0.02517046  0.23199563  0.80927243    -0.59900
H1188       H  0.00202771  0.20084884  0.76470573     0.14600
H1189       H  0.97875630  0.11288431  0.71044433     0.46500
H1190       H  0.89659122  0.20363628  0.79786063     0.41900
H1191       H  0.03181061  0.25144437  0.80028927     0.45300
H1192       H  0.89485336  0.23008833  0.72534945     0.36800
C1193       C  0.77407818  0.59556832  0.11672490    -0.27500
C1194       C  0.79650057  0.61491576  0.12807876     0.02100
C1195       C  0.81272133  0.63313843  0.10757627     0.30200
C1196       C  0.80671491  0.63158897  0.07651557    -0.19300
C1197       C  0.78423334  0.61230706  0.06484436    -0.28700
C1198       C  0.76738617  0.59463632  0.08569761     0.44300
C1199       C  0.80204690  0.61705005  0.16131760     0.05400
O1200       O  0.83407980  0.65323444  0.11769339    -0.57200
H1201       H  0.81966693  0.64616705  0.06189099     0.18400
O1202       O  0.74336447  0.57734969  0.07650353    -0.63900
H1203       H  0.76119825  0.58145327  0.13208162     0.16800
C1204       C  0.77804415  0.62163212  0.18201836     0.29100
C1205       C  0.78405518  0.62577572  0.21293903    -0.24800
C1206       C  0.81389890  0.62627278  0.22367045    -0.24100
C1207       C  0.83782786  0.62071971  0.20316866     0.40500
C1208       C  0.83178508  0.61594874  0.17240798    -0.26500
O1209       O  0.74869085  0.62328386  0.17216606    -0.58400
H1210       H  0.76538702  0.62994925  0.22835499     0.16200
O1211       O  0.86727725  0.62009061  0.21290105    -0.59900
H1212       H  0.85050387  0.61176560  0.15705620     0.14600
H1213       H  0.72590271  0.59141764  0.07589611     0.46500
H1214       H  0.74579715  0.64459129  0.16583042     0.41900
H1215       H  0.87055479  0.59923262  0.22040348     0.45300
H1216       H  0.82270045  0.67195488  0.12264082     0.36800
C1217       C  0.69115378  0.71082167  0.39073787    -0.27500
C1218       C  0.66804717  0.69815947  0.37310539     0.02100
C1219       C  0.67560603  0.67841291  0.34923412     0.30200
C1220       C  0.70584619  0.67160813  0.34313941    -0.19300
C1221       C  0.72927705  0.68419204  0.36059540    -0.28700
C1222       C  0.72162239  0.70420461  0.38451570     0.44300
C1223       C  0.63599537  0.70610136  0.37864390     0.05400
O1224       O  0.65346933  0.66557916  0.33167368    -0.57200
H1225       H  0.71086912  0.65629919  0.32458731     0.18400
O1226       O  0.74355495  0.71695355  0.40236130    -0.63900
H1227       H  0.68556894  0.72618990  0.40908548     0.16800
C1228       C  0.62081704  0.69722980  0.40526791     0.29100
C1229       C  0.58938380  0.70122611  0.40770103    -0.24800
C1230       C  0.57290856  0.71414729  0.38379437    -0.24100
C1231       C  0.58853848  0.72457817  0.35797790     0.40500
C1232       C  0.61980092  0.72056588  0.35562543    -0.26500
O1233       O  0.63614822  0.68287853  0.42807396    -0.58400
H1234       H  0.57771427  0.69305332  0.42768868     0.16200
O1235       O  0.57353539  0.73933208  0.33519145    -0.59900
H1236       H  0.63138330  0.72805756  0.33530522     0.14600
H1237       H  0.74775964  0.73693969  0.39310249     0.46500
H1238       H  0.64132025  0.69906593  0.44278248     0.41900
H1239       H  0.57476137  0.72574236  0.31728133     0.45300
H1240       H  0.64745159  0.64691894  0.34254291     0.36800
C1241       C  0.90307530  0.87217457  0.29890175    -0.27500
C1242       C  0.87778900  0.85696179  0.28723275     0.02100
C1243       C  0.85493020  0.87350070  0.27269393     0.30200
C1244       C  0.85703328  0.90493327  0.27070780    -0.19300
C1245       C  0.88210415  0.92037553  0.28255461    -0.28700
C1246       C  0.90536200  0.90376030  0.29661047     0.44300
C1247       C  0.87325743  0.82455457  0.29373083     0.05400
O1248       O  0.82997173  0.85915497  0.26116832    -0.57200
H1249       H  0.83893017  0.91724345  0.25980115     0.18400
O1250       O  0.92979073  0.91823941  0.30906734    -0.63900
H1251       H  0.92052840  0.85964162  0.31065683     0.16800
C1252       C  0.88707840  0.80169620  0.27635158     0.29100
C1253       C  0.88152785  0.77115132  0.28312871    -0.24800
C1254       C  0.86225387  0.76301947  0.30729632    -0.24100
C1255       C  0.84816505  0.78637864  0.32426680     0.40500
C1256       C  0.85387511  0.81665484  0.31746782    -0.26500
O1257       O  0.90534297  0.80897828  0.25228627    -0.58400
H1258       H  0.89238932  0.75385854  0.26948494     0.16200
O1259       O  0.82879315  0.78007328  0.34774322    -0.59900
H1260       H  0.84294191  0.83418445  0.33078578     0.14600
H1261       H  0.92464138  0.92090281  0.33080615     0.46500
H1262       H  0.92584316  0.81147013  0.26103744     0.41900
H1263       H  0.80835604  0.77976369  0.33855703     0.45300
H1264       H  0.83564547  0.85348364  0.24013857     0.36800
C1265       C  0.95575245  0.69800158  0.53474614    -0.27500
C1266       C  0.93672732  0.71514025  0.51592545     0.02100
C1267       C  0.93528859  0.74658237  0.52049373     0.30200
C1268       C  0.95164247  0.76020425  0.54391310    -0.19300
C1269       C  0.96977502  0.74314940  0.56400145    -0.28700
C1270       C  0.97257163  0.71174232  0.55807220     0.44300
C1271       C  0.91921481  0.70071975  0.49082298     0.05400
O1272       O  0.91841132  0.76453636  0.50164083    -0.57200
H1273       H  0.95054407  0.78449572  0.54498083     0.18400
O1274       O  0.99157355  0.69408524  0.57503034    -0.63900
H1275       H  0.95759837  0.67379742  0.53141664     0.16800
C1276       C  0.93346727  0.68224767  0.46894475     0.29100
C1277       C  0.91711350  0.67158160  0.44386310    -0.24800
C1278       C  0.88651003  0.67925995  0.43984826    -0.24100
C1279       C  0.87197432  0.69681427  0.46227939     0.40500
C1280       C  0.88822183  0.70719225  0.48750095    -0.26500
O1281       O  0.96387319  0.67631970  0.47067897    -0.58400
H1282       H  0.92882468  0.65829735  0.42681260     0.16200
O1283       O  0.84198009  0.70430073  0.45965013    -0.59900
H1284       H  0.87666186  0.72090346  0.50430825     0.14600
H1285       H  0.01132548  0.69477582  0.56434860     0.46500
H1286       H  0.96537088  0.65492708  0.47725315     0.41900
H1287       H  0.83078428  0.68679335  0.46805517     0.45300
H1288       H  0.93197277  0.76937509  0.48439126     0.36800
C1289       C  0.98141383  0.56728596  0.31249478    -0.27500
C1290       C  0.99098913  0.57056769  0.28237426     0.02100
C1291       C  0.97556724  0.59074773  0.26322607     0.30200
C1292       C  0.95079163  0.60713567  0.27423789    -0.19300
C1293       C  0.94094407  0.60372929  0.30436429    -0.28700
C1294       C  0.95674438  0.58372672  0.32361028     0.44300
C1295       C  0.01730037  0.55305933  0.27128126     0.05400
O1296       O  0.98449906  0.59455578  0.23368384    -0.57200
H1297       H  0.93893568  0.62213741  0.25893154     0.18400
O1298       O  0.94819049  0.57980542  0.35325182    -0.63900
H1299       H  0.99298565  0.55168944  0.32742056     0.16800
C1300       C  0.04547071  0.55539407  0.28570134     0.29100
C1301       C  0.07032823  0.53918636  0.27463731    -0.24800
C1302       C  0.06768389  0.51992535  0.24922043    -0.24100
C1303       C  0.03915338  0.51789735  0.23479009     0.40500
C1304       C  0.01433340  0.53414134  0.24597530    -0.26500
O1305       O  0.04930527  0.57475084  0.30974939    -0.58400
H1306       H  0.09155455  0.54284311  0.28594235     0.16200
O1307       O  0.03524830  0.49988283  0.20972701    -0.59900
H1308       H  0.99265888  0.53201868  0.23475238     0.14600
H1309       H  0.96020365  0.59473722  0.36490702     0.46500
H1310       H  0.05003847  0.56162053  0.32794244     0.41900
H1311       H  0.03564578  0.51385870  0.19217600     0.45300
H1312       H  0.99981847  0.61091237  0.23426612     0.36800
C1313       C  0.76467009  0.51044138  0.38932882    -0.27500
C1314       C  0.78338187  0.49697395  0.41108886     0.02100
C1315       C  0.81262835  0.50833787  0.41567247     0.30200
C1316       C  0.82258486  0.53349405  0.39934369    -0.19300
C1317       C  0.80357186  0.54812071  0.37840346    -0.28700
C1318       C  0.77445020  0.53593796  0.37310775     0.44300
C1319       C  0.77170848  0.47238837  0.43049510     0.05400
O1320       O  0.83167956  0.49489310  0.43612018    -0.57200
H1321       H  0.84516627  0.54191708  0.40367804     0.18400
O1322       O  0.75514345  0.54895022  0.35262745    -0.63900
H1323       H  0.74206182  0.50175416  0.38563334     0.16800
C1324       C  0.76409806  0.47816112  0.46088233     0.29100
C1325       C  0.75359280  0.45478606  0.47944672    -0.24800
C1326       C  0.75019095  0.42510885  0.46814766    -0.24100
C1327       C  0.75773072  0.41966490  0.43730912     0.40500
C1328       C  0.76849267  0.44312817  0.41889913    -0.26500
O1329       O  0.76655872  0.50681797  0.47260280    -0.58400
H1330       H  0.74734513  0.46072466  0.50230653     0.16200
O1331       O  0.75466500  0.39134630  0.42490402    -0.59900
H1332       H  0.77431434  0.43846449  0.39547397     0.14600
H1333       H  0.74234688  0.56295822  0.36471228     0.46500
H1334       H  0.74716188  0.51689942  0.46764340     0.41900
H1335       H  0.73521035  0.39181094  0.41376847     0.45300
H1336       H  0.82963927  0.50698532  0.45497332     0.36800
C1337       C  0.08970812  0.37154322  0.20176745    -0.27500
C1338       C  0.11709306  0.35652575  0.20743234     0.02100
C1339       C  0.14191558  0.37308140  0.21849990     0.30200
C1340       C  0.13960515  0.40431133  0.22248988    -0.19300
C1341       C  0.11265450  0.41964701  0.21573988    -0.28700
C1342       C  0.08736103  0.40292409  0.20580433     0.44300
C1343       C  0.12069992  0.32423457  0.19928577     0.05400
O1344       O  0.16879743  0.35897144  0.22489395    -0.57200
H1345       H  0.15907356  0.41656849  0.23089411     0.18400
O1346       O  0.06064618  0.41707103  0.19888799    -0.63900
H1347       H  0.07050135  0.35911584  0.19301170     0.16800
C1348       C  0.10243169  0.30153360  0.21206410     0.29100
C1349       C  0.10728669  0.27112426  0.20423997    -0.24800
C1350       C  0.13003289  0.26297295  0.18336322    -0.24100
C1351       C  0.14815199  0.28600103  0.17055685     0.40500
C1352       C  0.14324346  0.31617676  0.17842135    -0.26500
O1353       O  0.08064323  0.30874077  0.23306216    -0.58400
H1354       H  0.09313514  0.25394350  0.21447535     0.16200
O1355       O  0.17096438  0.27941169  0.15045343    -0.59900
H1356       H  0.15729569  0.33347828  0.16821709     0.14600
H1357       H  0.06277904  0.42344675  0.17745431     0.46500
H1358       H  0.06125556  0.30833383  0.22177746     0.41900
H1359       H  0.18920139  0.27635638  0.16310889     0.45300
H1360       H  0.16632819  0.35087694  0.24569658     0.36800
C1361       C  0.21748196  0.11358822  0.30269246    -0.27500
C1362       C  0.19565641  0.11740358  0.32551820     0.02100
C1363       C  0.16607422  0.12574152  0.31746290     0.30200
C1364       C  0.15867756  0.13052871  0.28699048    -0.19300
C1365       C  0.18035975  0.12665481  0.26388055    -0.28700
C1366       C  0.20997977  0.11778632  0.27203902     0.44300
C1367       C  0.20392746  0.11378406  0.35785388     0.05400
O1368       O  0.14451297  0.13040563  0.33939688    -0.57200
H1369       H  0.13579774  0.13732127  0.28145992     0.18400
O1370       O  0.23212878  0.11452369  0.25045508    -0.63900
H1371       H  0.24042432  0.10742295  0.30868561     0.16800
C1372       C  0.19405209  0.08859147  0.37462902     0.29100
C1373       C  0.19976066  0.08696262  0.40586027    -0.24800
C1374       C  0.21512509  0.11042126  0.42080285    -0.24100
C1375       C  0.22593003  0.13512044  0.40369944     0.40500
C1376       C  0.22031354  0.13663489  0.37249766    -0.26500
O1377       O  0.17806541  0.06588074  0.36082149    -0.58400
H1378       H  0.19127799  0.06783671  0.41860658     0.16200
O1379       O  0.24180525  0.15807642  0.41724558    -0.59900
H1380       H  0.22813384  0.15607860  0.35980084     0.14600
H1381       H  0.23304391  0.09251603  0.24617099     0.46500
H1382       H  0.19358400  0.05141462  0.35339197     0.41900
H1383       H  0.26296077  0.15070856  0.41835998     0.45300
H1384       H  0.13350602  0.11094797  0.34100885     0.36800
C1385       C  0.36594860  0.21676237  0.09700678    -0.27500
C1386       C  0.35568881  0.19260369  0.11487297     0.02100
C1387       C  0.37715182  0.17378749  0.12907194     0.30200
C1388       C  0.40806204  0.17905858  0.12501496    -0.19300
C1389       C  0.41839220  0.20372729  0.10786751    -0.28700
C1390       C  0.39687724  0.22280644  0.09396520     0.44300
C1391       C  0.32268740  0.18733373  0.11881539     0.05400
O1392       O  0.36821590  0.15049966  0.14752225    -0.57200
H1393       H  0.42394673  0.16378746  0.13565808     0.18400
O1394       O  0.40559966  0.24800280  0.07815256    -0.63900
H1395       H  0.34988995  0.23133557  0.08563580     0.16800
C1396       C  0.30277457  0.21118031  0.12649945     0.29100
C1397       C  0.27187781  0.20546556  0.13054644    -0.24800
C1398       C  0.26054103  0.17597664  0.12809880    -0.24100
C1399       C  0.28029776  0.15218483  0.12030084     0.40500
C1400       C  0.31096252  0.15801634  0.11534584    -0.26500
O1401       O  0.31335432  0.23999144  0.13098586    -0.58400
H1402       H  0.25694332  0.22392240  0.13677706     0.16200
O1403       O  0.26984147  0.12311196  0.11741140    -0.59900
H1404       H  0.32565961  0.13947899  0.10883355     0.14600
H1405       H  0.40765288  0.26418511  0.09361223     0.46500
H1406       H  0.32054010  0.24041599  0.15225573     0.41900
H1407       H  0.26233526  0.12158334  0.09630187     0.45300
H1408       H  0.36544934  0.15975792  0.16783960     0.36800
C1409       C  0.94159158  0.06970667  0.22319813    -0.27500
C1410       C  0.97038996  0.05793352  0.21766541     0.02100
C1411       C  0.97683014  0.02786233  0.22540441     0.30200
C1412       C  0.95451761  0.00980489  0.23872152    -0.19300
C1413       C  0.92521899  0.02125718  0.24431854    -0.28700
C1414       C  0.91907567  0.05169419  0.23625410     0.44300
C1415       C  0.99431359  0.07757910  0.20544809     0.05400
O1416       O  0.00534866  0.01630935  0.22119619    -0.57200
H1417       H  0.96093135  0.98717473  0.24497947     0.18400
O1418       O  0.89126605  0.06434352  0.24195518    -0.63900
H1419       H  0.93662389  0.09303866  0.21760461     0.16800
C1420       C  0.00304910  0.07572016  0.17488911     0.29100
C1421       C  0.02813206  0.09206472  0.16464018    -0.24800
C1422       C  0.04478917  0.11049470  0.18461882    -0.24100
C1423       C  0.03495541  0.11323937  0.21504435     0.40500
C1424       C  0.00981872  0.09691490  0.22512922    -0.26500
O1425       O  0.98786360  0.05716549  0.15517087    -0.58400
H1426       H  0.03496766  0.08968837  0.14115461     0.16200
O1427       O  0.05027383  0.13090533  0.23547237    -0.59900
H1428       H  0.00307744  0.09846620  0.24872028     0.14600
H1429       H  0.88119528  0.06572331  0.22191969     0.46500
H1430       H  0.97077097  0.06951356  0.14753391     0.41900
H1431       H  0.06507747  0.11716647  0.24518605     0.45300
H1432       H  0.00520353  0.00747540  0.20049719     0.36800
C1433       C  0.06605326  0.22628851  0.94528538    -0.27500
C1434       C  0.05326947  0.21533814  0.97216054     0.02100
C1435       C  0.02171687  0.21661350  0.97602115     0.30200
C1436       C  0.00348862  0.22952404  0.95362084    -0.19300
C1437       C  0.01611973  0.24146643  0.92681862    -0.28700
C1438       C  0.04782471  0.23878159  0.92259082     0.44300
C1439       C  0.07296411  0.20370009  0.99665677     0.05400
O1440       O  0.00863867  0.20705415  0.00257748    -0.57200
H1441       H  0.97959833  0.23036881  0.95820720     0.18400
O1442       O  0.06143841  0.24968421  0.89685939    -0.63900
H1443       H  0.09033009  0.22532129  0.94196064     0.16800
C1444       C  0.06891215  0.17440708  0.00827861     0.29100
C1445       C  0.08517700  0.16509128  0.03371363    -0.24800
C1446       C  0.10614995  0.18443350  0.04786441    -0.24100
C1447       C  0.11164405  0.21312400  0.03488923     0.40500
C1448       C  0.09497903  0.22256048  0.00958853    -0.26500
O1449       O  0.04862242  0.15486876  0.99528662    -0.58400
H1450       H  0.08089842  0.14270017  0.04265517     0.16200
O1451       O  0.13205674  0.23275152  0.04753366    -0.59900
H1452       H  0.09852204  0.24510165  0.00067567     0.14600
H1453       H  0.06422801  0.23180196  0.88351754     0.46500
H1454       H  0.05975106  0.14522062  0.97827707     0.41900
H1455       H  0.15116424  0.22935588  0.03620578     0.45300
H1456       H  0.99708456  0.18859574  0.99720708     0.36800
C1457       C  0.17237782  0.01113132  0.06446426    -0.27500
C1458       C  0.20233663  0.00165600  0.06870257     0.02100
C1459       C  0.22034354  0.01620174  0.09049322     0.30200
C1460       C  0.20849984  0.04011357  0.10748822    -0.19300
C1461       C  0.17862088  0.05013883  0.10311033    -0.28700
C1462       C  0.16050999  0.03535012  0.08124202     0.44300
C1463       C  0.21461512  0.97612406  0.05087305     0.05400
O1464       O  0.24962516  0.00718126  0.09536015    -0.57200
H1465       H  0.22307272  0.05116894  0.12380700     0.18400
O1466       O  0.13115409  0.04406867  0.07625931    -0.63900
H1467       H  0.15827945  0.99994635  0.04780220     0.16800
C1468       C  0.20190569  0.94718248  0.05333141     0.29100
C1469       C  0.21487112  0.92279810  0.03783890    -0.24800
C1470       C  0.24071906  0.92664229  0.01936474    -0.24100
C1471       C  0.25336373  0.95599193  0.01713616     0.40500
C1472       C  0.24028783  0.98031800  0.03273845    -0.26500
O1473       O  0.17731374  0.94226660  0.07169625    -0.58400
H1474       H  0.20484378  0.90096039  0.04164943     0.16200
O1475       O  0.27923277  0.96090780  0.00059423    -0.59900
H1476       H  0.25046509  0.00253343  0.03094954     0.14600
H1477       H  0.13193516  0.05718728  0.05807638     0.46500
H1478       H  0.18580623  0.93865223  0.09216071     0.41900
H1479       H  0.27264776  0.97213216  0.98230377     0.45300
H1480       H  0.24818796  0.99034987  0.11010612     0.36800
loop_ 
_geom_bond_atom_site_label_1 
_geom_bond_atom_site_label_2 
_geom_bond_distance 
_geom_bond_site_symmetry_2 
_ccdc_geom_bond_type 
Zn1           O5   1.955       .  S
Zn1           O6   2.024       .  S
Zn1          O10   1.996       .  S
Zn1          O17   2.035       .  S
Zn2           O5   1.952       .  S
Zn2           O7   2.038       .  S
Zn2           O9   1.997       .  S
Zn2          O13   2.012       .  S
Zn3           O5   1.953       .  S
Zn3           O8   2.029       .  S
Zn3          O11   2.025       .  S
Zn3          O14   2.014       .  S
Zn4           O5   1.945       .  S
Zn4          O12   2.008       .  S
Zn4          O15   2.007       .  S
Zn4          O16   2.002       .  S
O6           C18   1.274       .  A
O7           C19   1.276       .  A
O8           C20   1.276       .  A
O9           C18   1.272       .  A
O10          C20   1.272       .  A
O11          C19   1.275       .  A
O12          C21   1.274       .  A
O13          C22   1.274       .  A
O14          C21   1.274       .  A
O15          C22   1.272       .  A
O16          C23   1.273       .  A
O17          C23   1.275       .  A
C18        C1398   1.472       .  S
C19        C1365   1.491       .  S
C20        C1350   1.485       .  S
C21        C1422   1.484       .  S
C22        C1461   1.484       .  S
C23        C1446   1.489       .  S
Zn24         O28   1.940       .  S
Zn24         O29   2.007       .  S
Zn24         O33   2.020       .  S
Zn24         O40   1.995       .  S
Zn25         O28   1.959       .  S
Zn25         O30   2.013       .  S
Zn25         O32   2.036       .  S
Zn25         O36   2.037       .  S
Zn26         O28   1.948       .  S
Zn26         O31   2.034       .  S
Zn26         O34   2.026       .  S
Zn26         O37   2.006       .  S
Zn27         O28   1.961       .  S
Zn27         O35   2.044       .  S
Zn27         O38   2.010       .  S
Zn27         O39   2.019       .  S
O29          C41   1.274       .  A
O30          C42   1.275       .  A
O31          C43   1.275       .  A
O32          C41   1.275       .  A
O33          C43   1.273       .  A
O34          C42   1.275       .  A
O35          C44   1.277       .  A
O36          C45   1.276       .  A
O37          C44   1.273       .  A
O38          C45   1.273       .  A
O39          C46   1.275       .  A
O40          C46   1.272       .  A
C41        C1317   1.490       .  S
C42        C1221   1.488       .  S
C43        C1278   1.486       .  S
C44        C1254   1.492       .  S
C45        C1206   1.481       .  S
C46        C1293   1.480       .  S
C47          C48   1.530   1_655  S
C47          C53   1.533       .  S
C47          C51   1.553       .  S
C47        C1437   1.534   1_655  S
C48          H55   1.086       .  S
C48          C49   1.363   1_455  D
C49          C50   1.542       .  S
C49        C1134   1.487       .  S
C50          C54   1.546       .  S
C50          C52   1.531       .  S
C50          H56   1.111       .  S
C51          H57   1.081       .  S
C51          C52   1.366       .  D
C52        C1149   1.479       .  S
C53          H58   1.086   1_655  S
C53          C54   1.367       .  D
C54        C1182   1.486       .  S
C59          C60   1.529       .  S
C59          C65   1.535       .  S
C59          C63   1.554       .  S
C59        C1326   1.534       .  S
C60          H67   1.087       .  S
C60          C61   1.361       .  D
C61          C62   1.536       .  S
C61        C1062   1.479       .  S
C62          C66   1.539       .  S
C62          C64   1.532       .  S
C62          H68   1.111       .  S
C63          H69   1.082       .  S
C63          C64   1.370       .  D
C64        C1077   1.479       .  S
C65          H70   1.086       .  S
C65          C66   1.367       .  D
C66        C1110   1.484       .  S
C71          C72   1.533       .  S
C71          C77   1.543       .  S
C71          C75   1.544   1_565  S
C71         C957   1.539       .  S
C72          H79   1.086       .  S
C72          C73   1.365       .  D
C73          C74   1.550   1_565  S
C73         C990   1.492       .  S
C74          C78   1.545       .  S
C74          C76   1.536       .  S
C74          H80   1.110       .  S
C75          H81   1.086       .  S
C75          C76   1.366       .  D
C76        C1038   1.485       .  S
C77          H82   1.079       .  S
C77          C78   1.367   1_565  D
C78        C1005   1.495       .  S
Zn83         O87   1.937       .  S
Zn83         O88   2.000       .  S
Zn83         O92   2.000       .  S
Zn83         O99   2.003       .  S
Zn84         O87   1.965       .  S
Zn84         O89   2.060       .  S
Zn84         O91   2.042       .  S
Zn84         O95   2.019       .  S
Zn85         O87   1.956       .  S
Zn85         O90   2.027       .  S
Zn85         O93   2.013       .  S
Zn85         O96   2.035       .  S
Zn86         O87   1.964       .  S
Zn86         O94   2.023       .  S
Zn86         O97   2.039       .  S
Zn86         O98   2.057       .  S
O88         C100   1.271       .  A
O89         C101   1.279       .  A
O90         C102   1.276       .  A
O91         C100   1.277       .  A
O92         C102   1.272       .  A
O93         C101   1.274       .  A
O94         C103   1.275       .  A
O95         C104   1.276       .  A
O96         C103   1.277       .  A
O97         C104   1.277       .  A
O98         C105   1.278       .  A
O99         C105   1.272       .  A
C100       C1014   1.491       .  S
C101        C894   1.498       .  S
C102       C1101   1.486       .  S
C103        C909   1.492   1_655  S
C104        C942   1.481   1_545  S
C105       C1173   1.487       .  S
Zn106       O110   1.955       .  S
Zn106       O111   2.033       .  S
Zn106       O115   2.032       .  S
Zn106       O122   2.011       .  S
Zn107       O110   1.939       .  S
Zn107       O112   2.009       .  S
Zn107       O114   2.005       .  S
Zn107       O118   2.013       .  S
Zn108       O110   1.957       .  S
Zn108       O113   2.005       .  S
Zn108       O116   2.044       .  S
Zn108       O119   2.034       .  S
Zn109       O110   1.951       .  S
Zn109       O117   2.016       .  S
Zn109       O120   2.016       .  S
Zn109       O121   2.036       .  S
O111        C123   1.275       .  A
O112        C124   1.274       .  A
O113        C125   1.274       .  A
O114        C123   1.273       .  A
O115        C125   1.277       .  A
O116        C124   1.276       .  A
O117        C126   1.275       .  A
O118        C127   1.274       .  A
O119        C126   1.276       .  A
O120        C127   1.275       .  A
O121        C128   1.276       .  A
O122        C128   1.274       .  A
C123       C1158   1.487       .  S
C124       C1029   1.489       .  S
C125        C837   1.488       .  S
C126        C861   1.492       .  S
C127       C1086   1.480       .  S
C128        C822   1.483       .  S
C129        C130   1.534       .  S
C129        C135   1.544       .  S
C129        C133   1.537   1_554  S
C129       C1470   1.531       .  S
C130        H137   1.085       .  S
C130        C131   1.367       .  D
C131        C132   1.542   1_554  S
C131        C741   1.491       .  S
C132        C136   1.541       .  S
C132        C134   1.535       .  S
C132        H138   1.110       .  S
C133        H139   1.086       .  S
C133        C134   1.361       .  D
C134        C774   1.470       .  S
C135        H140   1.080       .  S
C135        C136   1.366   1_554  D
C136        C798   1.487       .  S
C141        C142   1.540       .  S
C141        C147   1.539       .  S
C141        C145   1.544       .  S
C141        C870   1.537       .  S
C142        H149   1.082       .  S
C142        C143   1.361       .  D
C143        C144   1.533       .  S
C143        C669   1.473       .  S
C144        C148   1.538       .  S
C144        C146   1.537       .  S
C144        H150   1.110       .  S
C145        H151   1.085       .  S
C145        C146   1.368       .  D
C146        C693   1.486       .  S
C147        H152   1.086       .  S
C147        C148   1.367       .  D
C148        C717   1.483       .  S
C153        C154   1.543       .  S
C153        C159   1.545       .  S
C153        C157   1.547   1_655  S
C153       C1269   1.547       .  S
C154        H161   1.081       .  S
C154        C155   1.357       .  D
C155        C156   1.532   1_655  S
C155        C933   1.480       .  S
C156        C160   1.546       .  S
C156        C158   1.531       .  S
C156        H162   1.110       .  S
C157        H163   1.086       .  S
C157        C158   1.370       .  D
C158        C654   1.482       .  S
C159        H164   1.084       .  S
C159        C160   1.374   1_655  D
C160        C621   1.499       .  S
Zn165       O169   1.968       .  S
Zn165       O170   2.025       .  S
Zn165       O174   2.047       .  S
Zn165       O181   2.024       .  S
Zn166       O169   1.976       .  S
Zn166       O171   2.064       .  S
Zn166       O173   2.027       .  S
Zn166       O177   2.057       .  S
Zn167       O169   1.939       .  S
Zn167       O172   1.989       .  S
Zn167       O175   2.010       .  S
Zn167       O178   1.992       .  S
Zn168       O169   1.966       .  S
Zn168       O176   2.030       .  S
Zn168       O179   2.008       .  S
Zn168       O180   2.049       .  S
O170        C182   1.277       .  A
O171        C183   1.278       .  A
O172        C184   1.271       .  A
O173        C182   1.277       .  A
O174        C184   1.275       .  A
O175        C183   1.272       .  A
O176        C185   1.274       .  A
O177        C186   1.280       .  A
O178        C185   1.271       .  A
O179        C186   1.273       .  A
O180        C187   1.277       .  A
O181        C187   1.275       .  A
C182        C789   1.485       .  S
C183        C597   1.497   1_556  S
C184        C582   1.490   1_455  S
C185       C1125   1.475       .  S
C186        C726   1.493       .  S
C187        C630   1.497       .  S
C188        C189   1.540       .  S
C188        C194   1.533       .  S
C188        C192   1.543       .  S
C188        C846   1.533       .  S
C189        H196   1.083       .  S
C189        C190   1.363       .  D
C190        C191   1.534       .  S
C190        C534   1.484       .  S
C191        C195   1.541       .  S
C191        C193   1.540       .  S
C191        H197   1.108       .  S
C192        H198   1.085       .  S
C192        C193   1.371       .  D
C193       C1389   1.490       .  S
C194        H199   1.085       .  S
C194        C195   1.366       .  D
C195        C549   1.489       .  S
C200        C201   1.542       .  S
C200        C206   1.540       .  S
C200        C204   1.546       .  S
C200        C477   1.540       .  S
C201        H208   1.080       .  S
C201        C202   1.359       .  D
C202        C203   1.534       .  S
C202        C918   1.476       .  S
C203        C207   1.542       .  S
C203        C205   1.536       .  S
C203        H209   1.110       .  S
C204        H210   1.086       .  S
C204        C205   1.369       .  D
C205       C1374   1.487       .  S
C206        H211   1.084       .  S
C206        C207   1.371       .  D
C207        C510   1.494       .  S
C212        C213   1.532       .  S
C212        C218   1.544       .  S
C212        C216   1.542       .  S
C212       C1302   1.531       .  S
C213        H220   1.087       .  S
C213        C214   1.363       .  D
C214        C215   1.542       .  S
C214        C606   1.488       .  S
C215        C219   1.538       .  S
C215        C217   1.540       .  S
C215        H221   1.110       .  S
C216        H222   1.086       .  S
C216        C217   1.367       .  D
C217       C1341   1.484       .  S
C218        H223   1.081       .  S
C218        C219   1.365       .  D
C219        C453   1.482       .  S
Zn224       O228   1.955       .  S
Zn224       O229   2.040       .  S
Zn224       O233   2.024       .  S
Zn224       O240   2.026       .  S
Zn225       O228   1.956       .  S
Zn225       O230   2.040       .  S
Zn225       O232   2.015       .  S
Zn225       O236   2.005       .  S
Zn226       O228   1.957       .  S
Zn226       O231   2.010       .  S
Zn226       O234   1.998       .  S
Zn226       O237   2.031       .  S
Zn227       O228   1.954       .  S
Zn227       O235   2.003       .  S
Zn227       O238   2.018       .  S
Zn227       O239   2.013       .  S
O229        C241   1.277       .  A
O230        C242   1.276       .  A
O231        C243   1.273       .  A
O232        C241   1.275       .  A
O233        C243   1.276       .  A
O234        C242   1.272       .  A
O235        C244   1.273       .  A
O236        C245   1.274       .  A
O237        C244   1.275       .  A
O238        C245   1.273       .  A
O239        C246   1.273       .  A
O240        C246   1.274       .  A
C241        C501   1.493       .  S
C242       C1053   1.483       .  S
C243        C558   1.474       .  S
C244        C429   1.484       .  S
C245        C678   1.487       .  S
C246        C462   1.486       .  S
Zn247       O251   1.942       .  S
Zn247       O252   1.997       .  S
Zn247       O256   2.010       .  S
Zn247       O263   2.024       .  S
Zn248       O251   1.952       .  S
Zn248       O253   2.018       .  S
Zn248       O255   2.027       .  S
Zn248       O259   2.022       .  S
Zn249       O251   1.949       .  S
Zn249       O254   2.016       .  S
Zn249       O257   2.033       .  S
Zn249       O260   2.006       .  S
Zn250       O251   1.952       .  S
Zn250       O258   2.032       .  S
Zn250       O261   2.012       .  S
Zn250       O262   2.035       .  S
O252        C264   1.272       .  A
O253        C265   1.273       .  A
O254        C266   1.274       .  A
O255        C264   1.276       .  A
O256        C266   1.274       .  A
O257        C265   1.276       .  A
O258        C267   1.276       .  A
O259        C268   1.276       .  A
O260        C267   1.274       .  A
O261        C268   1.275       .  A
O262        C269   1.276       .  A
O263        C269   1.274       .  A
C264        C765   1.484       .  S
C265        C966   1.493       .  S
C266        C702   1.478       .  S
C267        C405   1.488       .  S
C268        C486   1.488       .  S
C269        C645   1.495       .  S
C270        C271   1.534       .  S
C270        C276   1.535       .  S
C270        C274   1.553   1_545  S
C270       C1413   1.531       .  S
C271        H278   1.087       .  S
C271        C272   1.362       .  D
C272        C273   1.541   1_545  S
C272        C885   1.484       .  S
C273        C277   1.538       .  S
C273        C275   1.536       .  S
C273        H279   1.111       .  S
C274        H280   1.081       .  S
C274        C275   1.369       .  D
C275       C1245   1.483       .  S
C276        H281   1.086       .  S
C276        C277   1.362   1_545  D
C277        C381   1.477       .  S
C282        C283   1.540       .  S
C282        C288   1.538       .  S
C282        C286   1.546       .  S
C282        C414   1.536       .  S
C283        H290   1.081       .  S
C283        C284   1.361       .  D
C284        C285   1.535       .  S
C284        C438   1.476       .  S
C285        C289   1.542       .  S
C285        C287   1.536       .  S
C285        H291   1.108       .  S
C286        H292   1.086       .  S
C286        C287   1.368       .  D
C287       C1230   1.484       .  S
C288        H293   1.086       .  S
C288        C289   1.368       .  D
C289        C357   1.495       .  S
C294        C295   1.532       .  S
C294        C300   1.538       .  S
C294        C298   1.553   1_556  S
C294        C813   1.539       .  S
C295        H302   1.086       .  S
C295        C296   1.361       .  D
C296        C297   1.544   1_556  S
C296        C573   1.486       .  S
C297        C301   1.541   1_554  S
C297        C299   1.541       .  S
C297        H303   1.107       .  S
C298        H304   1.078       .  S
C298        C299   1.371       .  D
C299       C1197   1.504       .  S
C300        H305   1.086       .  S
C300        C301   1.369       .  D
C301        C342   1.491   1_556  S
Zn306       O310   1.969       .  S
Zn306       O311   2.037       .  S
Zn306       O315   2.036       .  S
Zn306       O322   2.012       .  S
Zn307       O310   1.968       .  S
Zn307       O312   2.031       .  S
Zn307       O314   2.026       .  S
Zn307       O318   2.028       .  S
Zn308       O310   1.948       .  S
Zn308       O313   2.011       .  S
Zn308       O316   1.997       .  S
Zn308       O319   2.023       .  S
Zn309       O310   1.968       .  S
Zn309       O317   2.047       .  S
Zn309       O320   2.017       .  S
Zn309       O321   2.033       .  S
O311        C323   1.276       .  A
O312        C324   1.274       .  A
O313        C325   1.274       .  A
O314        C323   1.275       .  A
O315        C325   1.275       .  A
O316        C324   1.272       .  A
O317        C326   1.277       .  A
O318        C327   1.276       .  A
O319        C326   1.274       .  A
O320        C327   1.275       .  A
O321        C328   1.277       .  A
O322        C328   1.274       .  A
C323        C366   1.487       .  S
C324        C750   1.484       .  S
C325        C525   1.476       .  S
C326        C981   1.499   1_554  S
C327        C333   1.487       .  S
C328        C390   1.486       .  S
C329        C330   1.403       .  A
C329        C334   1.402       .  A
C329        H339   1.084       .  S
C330        C335   1.484       .  S
C330        C331   1.408       .  A
C331        C332   1.402       .  A
C331        O336   1.373       .  S
C332        C333   1.407       .  A
C332        H337   1.083       .  S
C333        C334   1.412       .  A
C334        O338   1.371       .  S
C335        C340   1.407       .  A
C335        C344   1.405   1_554  A
O336        H352   0.992       .  S
O338        H349   0.992       .  S
C340        C341   1.399       .  A
C340        O345   1.372       .  S
C341        C342   1.406       .  A
C341        H346   1.083       .  S
C342        C343   1.411   1_554  A
C343        C344   1.404       .  A
C343        O347   1.371       .  S
C344        H348   1.084       .  S
O345        H350   0.991       .  S
O347        H351   0.992       .  S
C353        C354   1.406       .  A
C353        C358   1.403       .  A
C353        H363   1.083       .  S
C354        C359   1.492       .  S
C354        C355   1.409       .  A
C355        C356   1.402       .  A
C355        O360   1.373       .  S
C356        C357   1.408       .  A
C356        H361   1.083       .  S
C357        C358   1.410       .  A
C358        O362   1.371       .  S
C359        C364   1.413       .  A
C359        C368   1.404       .  A
O360        H376   0.992       .  S
O362        H373   0.992       .  S
C364        C365   1.403       .  A
C364        O369   1.371       .  S
C365        C366   1.405       .  A
C365        H370   1.084       .  S
C366        C367   1.412       .  A
C367        C368   1.402       .  A
C367        O371   1.372       .  S
C368        H372   1.084       .  S
O369        H374   0.991       .  S
O371        H375   0.991       .  S
C377        C378   1.405       .  A
C377        C382   1.399       .  A
C377        H387   1.083       .  S
C378        C383   1.490       .  S
C378        C379   1.414       .  A
C379        C380   1.401       .  A
C379        O384   1.371       .  S
C380        C381   1.398       .  A
C380        H385   1.084   1_565  S
C381        C382   1.408       .  A
C382        O386   1.373       .  S
C383        C388   1.412       .  A
C383        C392   1.404       .  A
O384        H400   0.992   1_565  S
O386        H397   0.992       .  S
C388        C389   1.403       .  A
C388        O393   1.372       .  S
C389        C390   1.405       .  A
C389        H394   1.083       .  S
C390        C391   1.413       .  A
C391        C392   1.399       .  A
C391        O395   1.372       .  S
C392        H396   1.083       .  S
O393        H398   0.992       .  S
O395        H399   0.991       .  S
C401        C402   1.405       .  A
C401        C406   1.403       .  A
C401        H411   1.083       .  S
C402        C407   1.486       .  S
C402        C403   1.407       .  A
C403        C404   1.397       .  A
C403        O408   1.372       .  S
C404        C405   1.407       .  A
C404        H409   1.083       .  S
C405        C406   1.413       .  A
C406        O410   1.371       .  S
C407        C412   1.406       .  A
C407        C416   1.402       .  A
O408        H424   0.991       .  S
O410        H421   0.991       .  S
C412        C413   1.399       .  A
C412        O417   1.372       .  S
C413        C414   1.413       .  A
C413        H418   1.076       .  S
C414        C415   1.417       .  A
C415        C416   1.401       .  A
C415        O419   1.372       .  S
C416        H420   1.083       .  S
O417        H422   0.991       .  S
O419        H423   0.992       .  S
C425        C426   1.403       .  A
C425        C430   1.396       .  A
C425        H435   1.083       .  S
C426        C431   1.486       .  S
C426        C427   1.410       .  A
C427        C428   1.404       .  A
C427        O432   1.371       .  S
C428        C429   1.407       .  A
C428        H433   1.083       .  S
C429        C430   1.412       .  A
C430        O434   1.372       .  S
C431        C436   1.412       .  A
C431        C440   1.404       .  A
O432        H448   0.991       .  S
O434        H445   0.991       .  S
C436        C437   1.404       .  A
C436        O441   1.373       .  S
C437        C438   1.400       .  A
C437        H442   1.084       .  S
C438        C439   1.407       .  A
C439        C440   1.398       .  A
C439        O443   1.372       .  S
C440        H444   1.083       .  S
O441        H446   0.992       .  S
O443        H447   0.992       .  S
C449        C450   1.401       .  A
C449        C454   1.397       .  A
C449        H459   1.084       .  S
C450        C455   1.481       .  S
C450        C451   1.409       .  A
C451        C452   1.403       .  A
C451        O456   1.371       .  S
C452        C453   1.402       .  A
C452        H457   1.083       .  S
C453        C454   1.412       .  A
C454        O458   1.372       .  S
C455        C460   1.407       .  A
C455        C464   1.402       .  A
O456        H472   0.992       .  S
O458        H469   0.992       .  S
C460        C461   1.401       .  A
C460        O465   1.372       .  S
C461        C462   1.407       .  A
C461        H466   1.083       .  S
C462        C463   1.413       .  A
C463        C464   1.401       .  A
C463        O467   1.371       .  S
C464        H468   1.084       .  S
O465        H470   0.992       .  S
O467        H471   0.992       .  S
C473        C474   1.401       .  A
C473        C478   1.405       .  A
C473        H483   1.084       .  S
C474        C479   1.481   1_545  S
C474        C475   1.402       .  A
C475        C476   1.397       .  A
C475        O480   1.372       .  S
C476        C477   1.414       .  A
C476        H481   1.074       .  S
C477        C478   1.418       .  A
C478        O482   1.372       .  S
C479        C484   1.405       .  A
C479        C488   1.402       .  A
O480        H496   0.992   1_545  S
O482        H493   0.992       .  S
C484        C485   1.400       .  A
C484        O489   1.372       .  S
C485        C486   1.409       .  A
C485        H490   1.083       .  S
C486        C487   1.414       .  A
C487        C488   1.400       .  A
C487        O491   1.371       .  S
C488        H492   1.084   1_565  S
O489        H494   0.992       .  S
O491        H495   0.992       .  S
C497        C498   1.403       .  A
C497        C502   1.404       .  A
C497        H507   1.084       .  S
C498        C503   1.484       .  S
C498        C499   1.406       .  A
C499        C500   1.400       .  A
C499        O504   1.372       .  S
C500        C501   1.410       .  A
C500        H505   1.083       .  S
C501        C502   1.415       .  A
C502        O506   1.371       .  S
C503        C508   1.407       .  A
C503        C512   1.401       .  A
O504        H520   0.992       .  S
O506        H517   0.992       .  S
C508        C509   1.403       .  A
C508        O513   1.372       .  S
C509        C510   1.407       .  A
C509        H514   1.083       .  S
C510        C511   1.415       .  A
C511        C512   1.400       .  A
C511        O515   1.371       .  S
C512        H516   1.084       .  S
O513        H518   0.992       .  S
O515        H519   0.992       .  S
C521        C522   1.404       .  A
C521        C526   1.398       .  A
C521        H531   1.084       .  S
C522        C527   1.484       .  S
C522        C523   1.410       .  A
C523        C524   1.403       .  A
C523        O528   1.372       .  S
C524        C525   1.404   1_545  A
C524        H529   1.084       .  S
C525        C526   1.408   1_565  A
C526        O530   1.372   1_545  S
C527        C532   1.408       .  A
C527        C536   1.407       .  A
O528        H544   0.991       .  S
O530        H541   0.992       .  S
C532        C533   1.393       .  A
C532        O537   1.372       .  S
C533        C534   1.403       .  A
C533        H538   1.084       .  S
C534        C535   1.409       .  A
C535        C536   1.407       .  A
C535        O539   1.371       .  S
C536        H540   1.083       .  S
O537        H542   0.991       .  S
O539        H543   0.992       .  S
C545        C546   1.406       .  A
C545        C550   1.402       .  A
C545        H555   1.083       .  S
C546        C551   1.489       .  S
C546        C547   1.410       .  A
C547        C548   1.395       .  A
C547        O552   1.372       .  S
C548        C549   1.404       .  A
C548        H553   1.082       .  S
C549        C550   1.413       .  A
C550        O554   1.371       .  S
C551        C556   1.411       .  A
C551        C560   1.406       .  A
O552        H568   0.992       .  S
O554        H565   0.992       .  S
C556        C557   1.403       .  A
C556        O561   1.372       .  S
C557        C558   1.404       .  A
C557        H562   1.084       .  S
C558        C559   1.405       .  A
C559        C560   1.397       .  A
C559        O563   1.372       .  S
C560        H564   1.083       .  S
O561        H566   0.992       .  S
O563        H567   0.991       .  S
C569        C570   1.405       .  A
C569        C574   1.404       .  A
C569        H579   1.083       .  S
C570        C575   1.487       .  S
C570        C571   1.409       .  A
C571        C572   1.400   1_556  A
C571        O576   1.374   1_556  S
C572        C573   1.400   1_554  A
C572        H577   1.078       .  S
C573        C574   1.410       .  A
C574        O578   1.371       .  S
C575        C580   1.408       .  A
C575        C584   1.405       .  A
O576        H592   0.992       .  S
O578        H589   0.992       .  S
C580        C581   1.395       .  A
C580        O585   1.372       .  S
C581        C582   1.407       .  A
C581        H586   1.083       .  S
C582        C583   1.414       .  A
C583        C584   1.407       .  A
C583        O587   1.371       .  S
C584        H588   1.083       .  S
O585        H590   0.991       .  S
O587        H591   0.992       .  S
C593        C594   1.402       .  A
C593        C598   1.401       .  A
C593        H603   1.084       .  S
C594        C599   1.493       .  S
C594        C595   1.410       .  A
C595        C596   1.410       .  A
C595        O600   1.373       .  S
C596        C597   1.409       .  A
C596        H601   1.083       .  S
C597        C598   1.415       .  A
C598        O602   1.372       .  S
C599        C604   1.410       .  A
C599        C608   1.407       .  A
O600        H616   0.992       .  S
O602        H613   0.992       .  S
C604        C605   1.401       .  A
C604        O609   1.371       .  S
C605        C606   1.405       .  A
C605        H610   1.084       .  S
C606        C607   1.409       .  A
C607        C608   1.405       .  A
C607        O611   1.372       .  S
C608        H612   1.083       .  S
O609        H614   0.991       .  S
O611        H615   0.992       .  S
C617        C618   1.404   1_655  A
C617        C622   1.408       .  A
C617        H627   1.083       .  S
C618        C623   1.487       .  S
C618        C619   1.406       .  A
C619        C620   1.401       .  A
C619        O624   1.372       .  S
C620        C621   1.408       .  A
C620        H625   1.082       .  S
C621        C622   1.413   1_455  A
C622        O626   1.372       .  S
C623        C628   1.406       .  A
C623        C632   1.403       .  A
O624        H640   0.992       .  S
O626        H637   0.992       .  S
C628        C629   1.402       .  A
C628        O633   1.372       .  S
C629        C630   1.410       .  A
C629        H634   1.083       .  S
C630        C631   1.415       .  A
C631        C632   1.406       .  A
C631        O635   1.371       .  S
C632        H636   1.084       .  S
O633        H638   0.992       .  S
O635        H639   0.992       .  S
C641        C642   1.401       .  A
C641        C646   1.404       .  A
C641        H651   1.084       .  S
C642        C647   1.480       .  S
C642        C643   1.404       .  A
C643        C644   1.401       .  A
C643        O648   1.371       .  S
C644        C645   1.409       .  A
C644        H649   1.083       .  S
C645        C646   1.418       .  A
C646        O650   1.372       .  S
C647        C652   1.407       .  A
C647        C656   1.401       .  A
O648        H664   0.992       .  S
O650        H661   0.992       .  S
C652        C653   1.404       .  A
C652        O657   1.371       .  S
C653        C654   1.404       .  A
C653        H658   1.084       .  S
C654        C655   1.409       .  A
C655        C656   1.401       .  A
C655        O659   1.371       .  S
C656        H660   1.084       .  S
O657        H662   0.992       .  S
O659        H663   0.992       .  S
C665        C666   1.404       .  A
C665        C670   1.398       .  A
C665        H675   1.083       .  S
C666        C671   1.481       .  S
C666        C667   1.410       .  A
C667        C668   1.400       .  A
C667        O672   1.372       .  S
C668        C669   1.401       .  A
C668        H673   1.083       .  S
C669        C670   1.405       .  A
C670        O674   1.372       .  S
C671        C676   1.407       .  A
C671        C680   1.403       .  A
O672        H688   0.991       .  S
O674        H685   0.992       .  S
C676        C677   1.395       .  A
C676        O681   1.372       .  S
C677        C678   1.406       .  A
C677        H682   1.083       .  S
C678        C679   1.415       .  A
C679        C680   1.403       .  A
C679        O683   1.371       .  S
C680        H684   1.083       .  S
O681        H686   0.992       .  S
O683        H687   0.991       .  S
C689        C690   1.400       .  A
C689        C694   1.400       .  A
C689        H699   1.084       .  S
C690        C695   1.475       .  S
C690        C691   1.405       .  A
C691        C692   1.398       .  A
C691        O696   1.372       .  S
C692        C693   1.405       .  A
C692        H697   1.082       .  S
C693        C694   1.413       .  A
C694        O698   1.371       .  S
C695        C700   1.405       .  A
C695        C704   1.401       .  A
O696        H712   0.992       .  S
O698        H709   0.992       .  S
C700        C701   1.399       .  A
C700        O705   1.372       .  S
C701        C702   1.405       .  A
C701        H706   1.084       .  S
C702        C703   1.412       .  A
C703        C704   1.400       .  A
C703        O707   1.372       .  S
C704        H708   1.084       .  S
O705        H710   0.992       .  S
O707        H711   0.992       .  S
C713        C714   1.403       .  A
C713        C718   1.400       .  A
C713        H723   1.084       .  S
C714        C719   1.484       .  S
C714        C715   1.409       .  A
C715        C716   1.404       .  A
C715        O720   1.371       .  S
C716        C717   1.404       .  A
C716        H721   1.084       .  S
C717        C718   1.408       .  A
C718        O722   1.371       .  S
C719        C724   1.408       .  A
C719        C728   1.400       .  A
O720        H736   0.992       .  S
O722        H733   0.991       .  S
C724        C725   1.404       .  A
C724        O729   1.372       .  S
C725        C726   1.407       .  A
C725        H730   1.083       .  S
C726        C727   1.418       .  A
C727        C728   1.402       .  A
C727        O731   1.372       .  S
C728        H732   1.084       .  S
O729        H734   0.992       .  S
O731        H735   0.992       .  S
C737        C738   1.401       .  A
C737        C742   1.399       .  A
C737        H747   1.084       .  S
C738        C743   1.480       .  S
C738        C739   1.406   1_554  A
C739        C740   1.402       .  A
C739        O744   1.372       .  S
C740        C741   1.406   1_556  A
C740        H745   1.080       .  S
C741        C742   1.413       .  A
C742        O746   1.371       .  S
C743        C748   1.406       .  A
C743        C752   1.403       .  A
O744        H760   0.992       .  S
O746        H757   0.991       .  S
C748        C749   1.397       .  A
C748        O753   1.372   1_554  S
C749        C750   1.407       .  A
C749        H754   1.084       .  S
C750        C751   1.412       .  A
C751        C752   1.403       .  A
C751        O755   1.372       .  S
C752        H756   1.084       .  S
O753        H758   0.991   1_556  S
O755        H759   0.992       .  S
C761        C762   1.401       .  A
C761        C766   1.396       .  A
C761        H771   1.083       .  S
C762        C767   1.481       .  S
C762        C763   1.408       .  A
C763        C764   1.400       .  A
C763        O768   1.372       .  S
C764        C765   1.407       .  A
C764        H769   1.083       .  S
C765        C766   1.414       .  A
C766        O770   1.372       .  S
C767        C772   1.409       .  A
C767        C776   1.406       .  A
O768        H784   0.992       .  S
O770        H781   0.991       .  S
C772        C773   1.398       .  A
C772        O777   1.372       .  S
C773        C774   1.399       .  A
C773        H778   1.084       .  S
C774        C775   1.404       .  A
C775        C776   1.399       .  A
C775        O779   1.371       .  S
C776        H780   1.083       .  S
O777        H782   0.992       .  S
O779        H783   0.992       .  S
C785        C786   1.402       .  A
C785        C790   1.401       .  A
C785        H795   1.084       .  S
C786        C791   1.478       .  S
C786        C787   1.405       .  A
C787        C788   1.400       .  A
C787        O792   1.372       .  S
C788        C789   1.408       .  A
C788        H793   1.083       .  S
C789        C790   1.413       .  A
C790        O794   1.372       .  S
C791        C796   1.406       .  A
C791        C800   1.401       .  A
O792        H808   0.992       .  S
O794        H805   0.991       .  S
C796        C797   1.399       .  A
C796        O801   1.372       .  S
C797        C798   1.404       .  A
C797        H802   1.082       .  S
C798        C799   1.412   1_556  A
C799        C800   1.403   1_554  A
C799        O803   1.373       .  S
C800        H804   1.084   1_556  S
O801        H806   0.992       .  S
O803        H807   0.992       .  S
C809        C810   1.404       .  A
C809        C814   1.406       .  A
C809        H819   1.082       .  S
C810        C815   1.494       .  S
C810        C811   1.409       .  A
C811        C812   1.397       .  A
C811        O816   1.372       .  S
C812        C813   1.410       .  A
C812        H817   1.076   1_556  S
C813        C814   1.417       .  A
C814        O818   1.373       .  S
C815        C820   1.412       .  A
C815        C824   1.406       .  A
O816        H832   0.991       .  S
O818        H829   0.992       .  S
C820        C821   1.406       .  A
C820        O825   1.372       .  S
C821        C822   1.405       .  A
C821        H826   1.083       .  S
C822        C823   1.410       .  A
C823        C824   1.397       .  A
C823        O827   1.372       .  S
C824        H828   1.083       .  S
O825        H830   0.992       .  S
O827        H831   0.991       .  S
C833        C834   1.404       .  A
C833        C838   1.400       .  A
C833        H843   1.083   1_556  S
C834        C839   1.483   1_556  S
C834        C835   1.406       .  A
C835        C836   1.399       .  A
C835        O840   1.372       .  S
C836        C837   1.410       .  A
C836        H841   1.083       .  S
C837        C838   1.413       .  A
C838        O842   1.371       .  S
C839        C844   1.404       .  A
C839        C848   1.402       .  A
O840        H856   0.992       .  S
O842        H853   0.992       .  S
C844        C845   1.396       .  A
C844        O849   1.373       .  S
C845        C846   1.411       .  A
C845        H850   1.078       .  S
C846        C847   1.418       .  A
C847        C848   1.402       .  A
C847        O851   1.372       .  S
C848        H852   1.084       .  S
O849        H854   0.991       .  S
O851        H855   0.992       .  S
C857        C858   1.403       .  A
C857        C862   1.403       .  A
C857        H867   1.084       .  S
C858        C863   1.484       .  S
C858        C859   1.406       .  A
C859        C860   1.400       .  A
C859        O864   1.372       .  S
C860        C861   1.409       .  A
C860        H865   1.083       .  S
C861        C862   1.415       .  A
C862        O866   1.371       .  S
C863        C868   1.404       .  A
C863        C872   1.402       .  A
O864        H880   0.992       .  S
O866        H877   0.992       .  S
C868        C869   1.399       .  A
C868        O873   1.372       .  S
C869        C870   1.413       .  A
C869        H874   1.077       .  S
C870        C871   1.417       .  A
C871        C872   1.402       .  A
C871        O875   1.372       .  S
C872        H876   1.084       .  S
O873        H878   0.992       .  S
O875        H879   0.992       .  S
C881        C882   1.405   1_565  A
C881        C886   1.403       .  A
C881        H891   1.083       .  S
C882        C887   1.492       .  S
C882        C883   1.412       .  A
C883        C884   1.403       .  A
C883        O888   1.371       .  S
C884        C885   1.403       .  A
C884        H889   1.084       .  S
C885        C886   1.407   1_545  A
C886        O890   1.371       .  S
C887        C892   1.409       .  A
C887        C896   1.402       .  A
O888        H904   0.991       .  S
O890        H901   0.993       .  S
C892        C893   1.408       .  A
C892        O897   1.372   1_545  S
C893        C894   1.409       .  A
C893        H898   1.083       .  S
C894        C895   1.417       .  A
C895        C896   1.400       .  A
C895        O899   1.372       .  S
C896        H900   1.084       .  S
O897        H902   0.992       .  S
O899        H903   0.992       .  S
C905        C906   1.404       .  A
C905        C910   1.400       .  A
C905        H915   1.083       .  S
C906        C911   1.492       .  S
C906        C907   1.410       .  A
C907        C908   1.404       .  A
C907        O912   1.371       .  S
C908        C909   1.408       .  A
C908        H913   1.083   1_455  S
C909        C910   1.414       .  A
C910        O914   1.372       .  S
C911        C916   1.413       .  A
C911        C920   1.407       .  A
O912        H928   0.992       .  S
O914        H925   0.992       .  S
C916        C917   1.404       .  A
C916        O921   1.373       .  S
C917        C918   1.400       .  A
C917        H922   1.084       .  S
C918        C919   1.405       .  A
C919        C920   1.401       .  A
C919        O923   1.372       .  S
C920        H924   1.083       .  S
O921        H926   0.992       .  S
O923        H927   0.991       .  S
C929        C930   1.403       .  A
C929        C934   1.398       .  A
C929        H939   1.083       .  S
C930        C935   1.489       .  S
C930        C931   1.413       .  A
C931        C932   1.405       .  A
C931        O936   1.371       .  S
C932        C933   1.401       .  A
C932        H937   1.083       .  S
C933        C934   1.408       .  A
C934        O938   1.373   1_655  S
C935        C940   1.412       .  A
C935        C944   1.404       .  A
O936        H952   0.991       .  S
O938        H949   0.992   1_455  S
C940        C941   1.404       .  A
C940        O945   1.371   1_655  S
C941        C942   1.404       .  A
C941        H946   1.084   1_565  S
C942        C943   1.409       .  A
C943        C944   1.400       .  A
C943        O947   1.372       .  S
C944        H948   1.083       .  S
O945        H950   0.992       .  S
O947        H951   0.991       .  S
C953        C954   1.402       .  A
C953        C958   1.403       .  A
C953        H963   1.084       .  S
C954        C959   1.490       .  S
C954        C955   1.406       .  A
C955        C956   1.402       .  A
C955        O960   1.373       .  S
C956        C957   1.413       .  A
C956        H961   1.075       .  S
C957        C958   1.417       .  A
C958        O962   1.373       .  S
C959        C964   1.410       .  A
C959        C968   1.403       .  A
O960        H976   0.993       .  S
O962        H973   0.992       .  S
C964        C965   1.402       .  A
C964        O969   1.371       .  S
C965        C966   1.407       .  A
C965        H970   1.083       .  S
C966        C967   1.416       .  A
C967        C968   1.402       .  A
C967        O971   1.372       .  S
C968        H972   1.084       .  S
O969        H974   0.991       .  S
O971        H975   0.991       .  S
C977        C978   1.403       .  A
C977        C982   1.403       .  A
C977        H987   1.084       .  S
C978        C983   1.492       .  S
C978        C979   1.408       .  A
C979        C980   1.408       .  A
C979        O984   1.372       .  S
C980        C981   1.410       .  A
C980        H985   1.083       .  S
C981        C982   1.416       .  A
C982        O986   1.372       .  S
C983        C988   1.410       .  A
C983        C992   1.406   1_565  A
O984       H1000   0.992       .  S
O986        H997   0.991       .  S
C988        C989   1.404       .  A
C988        O993   1.372       .  S
C989        C990   1.407       .  A
C989        H994   1.084       .  S
C990        C991   1.409   1_565  A
C991        C992   1.406       .  A
C991        O995   1.371       .  S
C992        H996   1.083       .  S
O993        H998   0.992       .  S
O995        H999   0.993       .  S
C1001      C1002   1.400       .  A
C1001      C1006   1.397       .  A
C1001      H1011   1.084       .  S
C1002      C1007   1.486       .  S
C1002      C1003   1.410       .  A
C1003      C1004   1.405       .  A
C1003      O1008   1.371       .  S
C1004      C1005   1.405       .  A
C1004      H1009   1.083       .  S
C1005      C1006   1.418       .  A
C1006      O1010   1.372       .  S
C1007      C1012   1.409       .  A
C1007      C1016   1.401       .  A
O1008      H1024   0.992       .  S
O1010      H1021   0.990       .  S
C1012      C1013   1.403       .  A
C1012      O1017   1.372   1_545  S
C1013      C1014   1.407       .  A
C1013      H1018   1.083       .  S
C1014      C1015   1.417       .  A
C1015      C1016   1.400       .  A
C1015      O1019   1.372       .  S
C1016      H1020   1.084       .  S
O1017      H1022   0.993       .  S
O1019      H1023   0.991       .  S
C1025      C1026   1.408       .  A
C1025      C1030   1.407       .  A
C1025      H1035   1.083       .  S
C1026      C1031   1.495       .  S
C1026      C1027   1.411       .  A
C1027      C1028   1.397       .  A
C1027      O1032   1.372       .  S
C1028      C1029   1.405       .  A
C1028      H1033   1.084       .  S
C1029      C1030   1.412       .  A
C1030      O1034   1.371       .  S
C1031      C1036   1.414       .  A
C1031      C1040   1.405       .  A
O1032      H1048   0.991       .  S
O1034      H1045   0.992       .  S
C1036      C1037   1.406       .  A
C1036      O1041   1.371       .  S
C1037      C1038   1.404       .  A
C1037      H1042   1.083       .  S
C1038      C1039   1.407       .  A
C1039      C1040   1.398       .  A
C1039      O1043   1.370       .  S
C1040      H1044   1.083       .  S
O1041      H1046   0.991       .  S
O1043      H1047   0.990       .  S
C1049      C1050   1.403       .  A
C1049      C1054   1.404       .  A
C1049      H1059   1.084       .  S
C1050      C1055   1.477       .  S
C1050      C1051   1.404       .  A
C1051      C1052   1.397       .  A
C1051      O1056   1.372       .  S
C1052      C1053   1.407       .  A
C1052      H1057   1.084       .  S
C1053      C1054   1.411       .  A
C1054      O1058   1.371       .  S
C1055      C1060   1.405       .  A
C1055      C1064   1.405       .  A
O1056      H1072   0.992       .  S
O1058      H1069   0.992       .  S
C1060      C1061   1.394       .  A
C1060      O1065   1.372       .  S
C1061      C1062   1.404       .  A
C1061      H1066   1.084       .  S
C1062      C1063   1.406       .  A
C1063      C1064   1.405       .  A
C1063      O1067   1.371       .  S
C1064      H1068   1.083       .  S
O1065      H1070   0.992       .  S
O1067      H1071   0.992       .  S
C1073      C1074   1.403       .  A
C1073      C1078   1.398       .  A
C1073      H1083   1.084       .  S
C1074      C1079   1.479       .  S
C1074      C1075   1.408       .  A
C1075      C1076   1.400       .  A
C1075      O1080   1.371       .  S
C1076      C1077   1.403       .  A
C1076      H1081   1.084       .  S
C1077      C1078   1.408       .  A
C1078      O1082   1.371       .  S
C1079      C1084   1.406       .  A
C1079      C1088   1.403       .  A
O1080      H1096   0.992       .  S
O1082      H1093   0.992       .  S
C1084      C1085   1.398       .  A
C1084      O1089   1.372       .  S
C1085      C1086   1.405       .  A
C1085      H1090   1.084       .  S
C1086      C1087   1.412       .  A
C1087      C1088   1.401       .  A
C1087      O1091   1.372       .  S
C1088      H1092   1.084       .  S
O1089      H1094   0.992       .  S
O1091      H1095   0.991       .  S
C1097      C1098   1.401       .  A
C1097      C1102   1.400       .  A
C1097      H1107   1.084       .  S
C1098      C1103   1.479       .  S
C1098      C1099   1.407       .  A
C1099      C1100   1.399       .  A
C1099      O1104   1.372       .  S
C1100      C1101   1.406       .  A
C1100      H1105   1.083       .  S
C1101      C1102   1.416       .  A
C1102      O1106   1.372       .  S
C1103      C1108   1.408       .  A
C1103      C1112   1.400       .  A
O1104      H1120   0.992       .  S
O1106      H1117   0.992       .  S
C1108      C1109   1.403       .  A
C1108      O1113   1.371       .  S
C1109      C1110   1.403       .  A
C1109      H1114   1.083       .  S
C1110      C1111   1.411       .  A
C1111      C1112   1.398       .  A
C1111      O1115   1.372       .  S
C1112      H1116   1.084       .  S
O1113      H1118   0.992       .  S
O1115      H1119   0.992       .  S
C1121      C1122   1.405       .  A
C1121      C1126   1.402       .  A
C1121      H1131   1.083       .  S
C1122      C1127   1.483       .  S
C1122      C1123   1.409       .  A
C1123      C1124   1.396       .  A
C1123      O1128   1.372   1_455  S
C1124      C1125   1.403       .  A
C1124      H1129   1.084       .  S
C1125      C1126   1.409       .  A
C1126      O1130   1.372       .  S
C1127      C1132   1.409       .  A
C1127      C1136   1.401       .  A
O1128      H1144   0.992       .  S
O1130      H1141   0.992       .  S
C1132      C1133   1.406   1_455  A
C1132      O1137   1.371       .  S
C1133      C1134   1.404       .  A
C1133      H1138   1.083       .  S
C1134      C1135   1.414   1_655  A
C1135      C1136   1.393       .  A
C1135      O1139   1.372       .  S
C1136      H1140   1.084       .  S
O1137      H1142   0.992       .  S
O1139      H1143   0.992   1_455  S
C1145      C1146   1.405       .  A
C1145      C1150   1.402       .  A
C1145      H1155   1.083       .  S
C1146      C1151   1.481       .  S
C1146      C1147   1.408       .  A
C1147      C1148   1.398       .  A
C1147      O1152   1.371       .  S
C1148      C1149   1.402       .  A
C1148      H1153   1.084       .  S
C1149      C1150   1.408       .  A
C1150      O1154   1.372       .  S
C1151      C1156   1.407       .  A
C1151      C1160   1.401       .  A
O1152      H1168   0.991       .  S
O1154      H1165   0.991       .  S
C1156      C1157   1.404       .  A
C1156      O1161   1.372       .  S
C1157      C1158   1.408       .  A
C1157      H1162   1.083       .  S
C1158      C1159   1.414       .  A
C1159      C1160   1.398       .  A
C1159      O1163   1.372       .  S
C1160      H1164   1.084       .  S
O1161      H1166   0.992       .  S
O1163      H1167   0.992       .  S
C1169      C1170   1.407       .  A
C1169      C1174   1.405       .  A
C1169      H1179   1.084       .  S
C1170      C1175   1.491       .  S
C1170      C1171   1.408       .  A
C1171      C1172   1.402       .  A
C1171      O1176   1.373       .  S
C1172      C1173   1.407       .  A
C1172      H1177   1.084       .  S
C1173      C1174   1.410       .  A
C1174      O1178   1.371       .  S
C1175      C1180   1.411       .  A
C1175      C1184   1.405       .  A
O1176      H1192   0.992       .  S
O1178      H1189   0.992       .  S
C1180      C1181   1.402       .  A
C1180      O1185   1.371       .  S
C1181      C1182   1.404       .  A
C1181      H1186   1.083       .  S
C1182      C1183   1.409       .  A
C1183      C1184   1.402       .  A
C1183      O1187   1.371   1_655  S
C1184      H1188   1.083   1_655  S
O1185      H1190   0.991       .  S
O1187      H1191   0.992       .  S
C1193      C1194   1.403       .  A
C1193      C1198   1.402       .  A
C1193      H1203   1.083       .  S
C1194      C1199   1.490       .  S
C1194      C1195   1.408       .  A
C1195      C1196   1.398       .  A
C1195      O1200   1.372       .  S
C1196      C1197   1.408       .  A
C1196      H1201   1.077       .  S
C1197      C1198   1.419       .  A
C1198      O1202   1.371       .  S
C1199      C1204   1.412       .  A
C1199      C1208   1.405       .  A
O1200      H1216   0.992       .  S
O1202      H1213   0.991       .  S
C1204      C1205   1.402       .  A
C1204      O1209   1.371       .  S
C1205      C1206   1.403       .  A
C1205      H1210   1.083       .  S
C1206      C1207   1.411       .  A
C1207      C1208   1.399       .  A
C1207      O1211   1.372       .  S
C1208      H1212   1.083       .  S
O1209      H1214   0.992       .  S
O1211      H1215   0.991       .  S
C1217      C1218   1.402       .  A
C1217      C1222   1.404       .  A
C1217      H1227   1.083       .  S
C1218      C1223   1.479       .  S
C1218      C1219   1.406       .  A
C1219      C1220   1.395       .  A
C1219      O1224   1.372       .  S
C1220      C1221   1.407       .  A
C1220      H1225   1.083       .  S
C1221      C1222   1.416       .  A
C1222      O1226   1.371       .  S
C1223      C1228   1.408       .  A
C1223      C1232   1.400       .  A
O1224      H1240   0.992       .  S
O1226      H1237   0.992       .  S
C1228      C1229   1.404       .  A
C1228      O1233   1.371       .  S
C1229      C1230   1.405       .  A
C1229      H1234   1.083       .  S
C1230      C1231   1.409       .  A
C1231      C1232   1.397       .  A
C1231      O1235   1.372       .  S
C1232      H1236   1.084       .  S
O1233      H1238   0.992       .  S
O1235      H1239   0.993       .  S
C1241      C1242   1.403       .  A
C1241      C1246   1.404       .  A
C1241      H1251   1.083       .  S
C1242      C1247   1.476       .  S
C1242      C1243   1.404       .  A
C1243      C1244   1.396       .  A
C1243      O1248   1.371       .  S
C1244      C1245   1.404       .  A
C1244      H1249   1.082       .  S
C1245      C1246   1.409       .  A
C1246      O1250   1.371       .  S
C1247      C1252   1.406       .  A
C1247      C1256   1.397       .  A
O1248      H1264   0.992       .  S
O1250      H1261   0.992       .  S
C1252      C1253   1.406       .  A
C1252      O1257   1.371       .  S
C1253      C1254   1.411       .  A
C1253      H1258   1.083       .  S
C1254      C1255   1.417       .  A
C1255      C1256   1.396       .  A
C1255      O1259   1.372       .  S
C1256      H1260   1.084       .  S
O1257      H1262   0.992       .  S
O1259      H1263   0.991       .  S
C1265      C1266   1.406       .  A
C1265      C1270   1.408       .  A
C1265      H1275   1.083       .  S
C1266      C1271   1.495       .  S
C1266      C1267   1.406       .  A
C1267      C1268   1.398       .  A
C1267      O1272   1.372       .  S
C1268      C1269   1.415       .  A
C1268      H1273   1.076       .  S
C1269      C1270   1.418       .  A
C1270      O1274   1.371       .  S
C1271      C1276   1.410       .  A
C1271      C1280   1.408       .  A
O1272      H1288   0.991       .  S
O1274      H1285   0.992   1_655  S
C1276      C1277   1.404       .  A
C1276      O1281   1.372       .  S
C1277      C1278   1.406       .  A
C1277      H1282   1.084       .  S
C1278      C1279   1.410       .  A
C1279      C1280   1.402       .  A
C1279      O1283   1.372       .  S
C1280      H1284   1.083       .  S
O1281      H1286   0.992       .  S
O1283      H1287   0.991       .  S
C1289      C1290   1.401       .  A
C1289      C1294   1.397       .  A
C1289      H1299   1.084       .  S
C1290      C1295   1.478   1_655  S
C1290      C1291   1.407       .  A
C1291      C1292   1.398       .  A
C1291      O1296   1.372       .  S
C1292      C1293   1.406       .  A
C1292      H1297   1.083       .  S
C1293      C1294   1.413       .  A
C1294      O1298   1.372       .  S
C1295      C1300   1.404       .  A
C1295      C1304   1.400       .  A
O1296      H1312   0.992       .  S
O1298      H1309   0.991       .  S
C1300      C1301   1.398       .  A
C1300      O1305   1.372       .  S
C1301      C1302   1.412       .  A
C1301      H1306   1.076       .  S
C1302      C1303   1.417       .  A
C1303      C1304   1.399       .  A
C1303      O1307   1.373       .  S
C1304      H1308   1.084   1_455  S
O1305      H1310   0.992       .  S
O1307      H1311   0.992       .  S
C1313      C1314   1.402       .  A
C1313      C1318   1.405       .  A
C1313      H1323   1.084       .  S
C1314      C1319   1.478       .  S
C1314      C1315   1.403       .  A
C1315      C1316   1.398       .  A
C1315      O1320   1.372       .  S
C1316      C1317   1.408       .  A
C1316      H1321   1.083       .  S
C1317      C1318   1.416       .  A
C1318      O1322   1.372       .  S
C1319      C1324   1.404       .  A
C1319      C1328   1.398       .  A
O1320      H1336   0.992       .  S
O1322      H1333   0.992       .  S
C1324      C1325   1.399       .  A
C1324      O1329   1.372       .  S
C1325      C1326   1.411       .  A
C1325      H1330   1.077       .  S
C1326      C1327   1.420       .  A
C1327      C1328   1.402       .  A
C1327      O1331   1.372       .  S
C1328      H1332   1.084       .  S
O1329      H1334   0.991       .  S
O1331      H1335   0.992       .  S
C1337      C1338   1.403       .  A
C1337      C1342   1.402       .  A
C1337      H1347   1.083       .  S
C1338      C1343   1.480       .  S
C1338      C1339   1.407       .  A
C1339      C1340   1.395       .  A
C1339      O1344   1.372       .  S
C1340      C1341   1.403       .  A
C1340      H1345   1.083       .  S
C1341      C1342   1.411       .  A
C1342      O1346   1.371       .  S
C1343      C1348   1.407       .  A
C1343      C1352   1.400       .  A
O1344      H1360   0.992       .  S
O1346      H1357   0.992       .  S
C1348      C1349   1.404       .  A
C1348      O1353   1.371       .  S
C1349      C1350   1.408       .  A
C1349      H1354   1.083       .  S
C1350      C1351   1.414       .  A
C1351      C1352   1.394       .  A
C1351      O1355   1.372       .  S
C1352      H1356   1.084       .  S
O1353      H1358   0.992       .  S
O1355      H1359   0.991       .  S
C1361      C1362   1.403       .  A
C1361      C1366   1.406       .  A
C1361      H1371   1.084       .  S
C1362      C1367   1.482       .  S
C1362      C1363   1.405       .  A
C1363      C1364   1.401       .  A
C1363      O1368   1.372       .  S
C1364      C1365   1.408       .  A
C1364      H1369   1.083       .  S
C1365      C1366   1.414       .  A
C1366      O1370   1.371       .  S
C1367      C1372   1.408       .  A
C1367      C1376   1.401       .  A
O1368      H1384   0.991       .  S
O1370      H1381   0.992       .  S
C1372      C1373   1.403       .  A
C1372      O1377   1.371       .  S
C1373      C1374   1.404       .  A
C1373      H1378   1.083       .  S
C1374      C1375   1.412       .  A
C1375      C1376   1.401       .  A
C1375      O1379   1.371       .  S
C1376      H1380   1.084       .  S
O1377      H1382   0.992       .  S
O1379      H1383   0.991       .  S
C1385      C1386   1.404       .  A
C1385      C1390   1.400       .  A
C1385      H1395   1.083       .  S
C1386      C1391   1.487       .  S
C1386      C1387   1.410       .  A
C1387      C1388   1.398       .  A
C1387      O1392   1.372       .  S
C1388      C1389   1.405       .  A
C1388      H1393   1.082       .  S
C1389      C1390   1.413       .  A
C1390      O1394   1.371       .  S
C1391      C1396   1.413       .  A
C1391      C1400   1.405       .  A
O1392      H1408   0.992       .  S
O1394      H1405   0.992       .  S
C1396      C1397   1.400       .  A
C1396      O1401   1.372       .  S
C1397      C1398   1.401       .  A
C1397      H1402   1.084       .  S
C1398      C1399   1.408       .  A
C1399      C1400   1.397       .  A
C1399      O1403   1.372       .  S
C1400      H1404   1.083       .  S
O1401      H1406   0.992       .  S
O1403      H1407   0.992       .  S
C1409      C1410   1.396       .  A
C1409      C1414   1.399       .  A
C1409      H1419   1.084       .  S
C1410      C1415   1.471       .  S
C1410      C1411   1.403       .  A
C1411      C1412   1.399       .  A
C1411      O1416   1.372   1_655  S
C1412      C1413   1.411       .  A
C1412      H1417   1.077   1_545  S
C1413      C1414   1.419       .  A
C1414      O1418   1.373       .  S
C1415      C1420   1.404   1_655  A
C1415      C1424   1.398   1_655  A
O1416      H1432   0.992       .  S
O1418      H1429   0.993       .  S
C1420      C1421   1.399       .  A
C1420      O1425   1.371   1_455  S
C1421      C1422   1.409       .  A
C1421      H1426   1.083       .  S
C1422      C1423   1.415       .  A
C1423      C1424   1.398       .  A
C1423      O1427   1.372       .  S
C1424      H1428   1.084       .  S
O1425      H1430   0.992       .  S
O1427      H1431   0.991       .  S
C1433      C1434   1.400       .  A
C1433      C1438   1.401       .  A
C1433      H1443   1.084       .  S
C1434      C1439   1.482       .  S
C1434      C1435   1.406       .  A
C1435      C1436   1.399       .  A
C1435      O1440   1.373   1_556  S
C1436      C1437   1.410       .  A
C1436      H1441   1.075   1_455  S
C1437      C1438   1.418       .  A
C1438      O1442   1.372       .  S
C1439      C1444   1.406   1_556  A
C1439      C1448   1.404   1_556  A
O1440      H1456   0.992   1_454  S
O1442      H1453   0.992       .  S
C1444      C1445   1.397       .  A
C1444      O1449   1.372   1_554  S
C1445      C1446   1.408       .  A
C1445      H1450   1.083       .  S
C1446      C1447   1.414       .  A
C1447      C1448   1.403       .  A
C1447      O1451   1.371       .  S
C1448      H1452   1.084       .  S
O1449      H1454   0.992       .  S
O1451      H1455   0.992       .  S
C1457      C1458   1.402       .  A
C1457      C1462   1.401       .  A
C1457      H1467   1.084   1_545  S
C1458      C1463   1.477   1_545  S
C1458      C1459   1.405       .  A
C1459      C1460   1.395       .  A
C1459      O1464   1.372       .  S
C1460      C1461   1.407       .  A
C1460      H1465   1.083       .  S
C1461      C1462   1.415       .  A
C1462      O1466   1.372       .  S
C1463      C1468   1.402       .  A
C1463      C1472   1.400       .  A
O1464      H1480   0.992   1_545  S
O1466      H1477   0.992       .  S
C1468      C1469   1.397       .  A
C1468      O1473   1.372       .  S
C1469      C1470   1.413       .  A
C1469      H1474   1.076       .  S
C1470      C1471   1.417       .  A
C1471      C1472   1.399       .  A
C1471      O1475   1.373       .  S
C1472      H1476   1.084   1_565  S
O1473      H1478   0.992       .  S
O1475      H1479   0.992   1_554  S
