geometry optimzed in LAMMPS
_audit_creation_date              2020-11-30 
_audit_creation_method            'lammps2cif' 
_symmetry_space_group_name_H-M    'P1' 
_symmetry_Int_Tables_number       1 
_symmetry_cell_setting            triclinic 
loop_ 
_symmetry_equiv_pos_as_xyz 
  x,y,z 
_cell_length_a                    28.98169075 
_cell_length_b                    28.980934850593837 
_cell_length_c                    28.97975456004817 
_cell_angle_alpha                 89.999235423864 
_cell_angle_beta                  90.00418927037725 
_cell_angle_gamma                 89.99071434997586 
loop_ 
_atom_site_label 
_atom_site_type_symbol 
_atom_site_fract_x 
_atom_site_fract_y 
_atom_site_fract_z 
_atom_site_charge 
C1          C  0.01736619  0.21018440  0.28829092     0.05800
C2          C  0.99841760  0.24528304  0.31527084    -0.10400
C3          C  0.99059541  0.28869626  0.29664842     0.03300
C4          C  0.00131380  0.29873727  0.25152406    -0.08900
C5          C  0.02046272  0.26559692  0.22298785     0.05700
C6          C  0.02880522  0.22018746  0.24102618    -0.08300
H7          H  0.99058812  0.23915595  0.35139625     0.11300
H8          H  0.99568996  0.33363151  0.23881853     0.08900
H9          H  0.04382760  0.19380035  0.21928740     0.08700
O10         O  0.97734531  0.43678847  0.36528601    -0.83900
O11         O  0.98219528  0.43601057  0.62422488    -0.84000
O12         O  0.06497295  0.38473522  0.49011795    -0.85700
O13         O  0.90784262  0.38143175  0.49635937    -0.84500
O14         O  0.84933865  0.43494791  0.49558370    -0.84000
O15         O  0.11924625  0.44260422  0.48873352    -0.85400
O16         O  0.98404091  0.38131774  0.56687492    -0.83900
O17         O  0.98201157  0.38169538  0.42228499    -0.83500
Zr18       Zr  0.98550112  0.42050614  0.49420719     2.84300
O19         O  0.93673665  0.46481912  0.54083311    -1.05500
O20         O  0.02942972  0.46949850  0.44689653    -1.06200
C21         C  0.97817774  0.39499321  0.38039965     1.09200
C22         C  0.98202187  0.39411961  0.60913474     1.09200
C23         C  0.10773465  0.39911805  0.48812804     1.12200
C24         C  0.86428705  0.39310014  0.49640612     1.10000
H25         H  0.05246342  0.44989748  0.55855422     0.35500
O26         O  0.03223407  0.46862938  0.53975146    -1.26400
H27         H  0.91597666  0.44474112  0.42905728     0.35200
O28         O  0.93540026  0.46458284  0.44763860    -1.28100
O29         O  0.96499430  0.58287260  0.62625575    -0.83900
O30         O  0.95696101  0.58408294  0.36425509    -0.85400
O31         O  0.11702954  0.51949738  0.56784809    -0.83900
O32         O  0.84815056  0.50825021  0.56906507    -0.84000
O33         O  0.84552201  0.51151959  0.42085923    -0.83700
O34         O  0.11366788  0.51792221  0.41403159    -0.83500
O35         O  0.05474248  0.64983139  0.49867054    -0.83900
O36         O  0.89751927  0.64282753  0.49241849    -0.83300
O37         O  0.11271291  0.59545812  0.49653344    -0.84400
O38         O  0.84474485  0.58360619  0.49190571    -0.83600
O39         O  0.06172707  0.51812583  0.62486549    -0.84000
O40         O  0.05633220  0.51599887  0.35908401    -0.83700
O41         O  0.90008916  0.51206426  0.36344855    -0.83300
O42         O  0.90454398  0.50634649  0.62486638    -0.83700
O43         O  0.95734325  0.63975657  0.57119765    -0.84000
O44         O  0.95441135  0.64040942  0.42018867    -0.85400
Zr45       Zr  0.98294586  0.51183958  0.58769436     2.83100
Zr46       Zr  0.97960250  0.51301123  0.39998800     2.83500
Zr47       Zr  0.07684111  0.51793589  0.49197555     2.84100
Zr48       Zr  0.88711920  0.50985513  0.49438508     2.83400
Zr49       Zr  0.97725353  0.60816642  0.49503225     2.84200
O50         O  0.93406440  0.55717584  0.44959235    -1.05900
O51         O  0.02691293  0.56167091  0.54019494    -1.05400
C52         C  0.95308309  0.62327681  0.61249656     1.09200
C53         C  0.94722090  0.62466189  0.37906644     1.11800
C54         C  0.10471689  0.51983222  0.61099012     1.09400
C55         C  0.86145154  0.50652165  0.61149021     1.09800
C56         C  0.85724868  0.51236010  0.37793395     1.09300
C57         C  0.09977877  0.51661285  0.37132028     1.08900
C58         C  0.09851497  0.63785478  0.49928494     1.09300
C59         C  0.85527203  0.62697801  0.49115015     1.08800
H60         H  0.04313598  0.58369541  0.42620356     0.35500
O61         O  0.02571829  0.56333222  0.44596736    -1.27000
H62         H  0.91122407  0.57237680  0.55823031     0.35500
O63         O  0.93393012  0.55623108  0.54013751    -1.28400
C64         C  0.00543309  0.68781787  0.77245338     0.05800
C65         C  0.96264300  0.67538363  0.75383038    -0.10400
C66         C  0.94385390  0.69910228  0.71635075     0.03300
C67         C  0.96361062  0.73952702  0.70027316    -0.08900
C68         C  0.00793400  0.75217265  0.71326084     0.05700
C69         C  0.02960493  0.72615624  0.75049207    -0.08300
H70         H  0.94626961  0.64361045  0.76505639     0.11300
H71         H  0.94778143  0.75649107  0.67073297     0.08900
H72         H  0.06420290  0.73489032  0.76143419     0.08700
C73         C  0.00392263  0.20450346  0.70701777     0.05800
C74         C  0.99048569  0.24085387  0.67805130    -0.10400
C75         C  0.98621028  0.28567697  0.69507660     0.03300
C76         C  0.99394217  0.29541661  0.74100186    -0.08900
C77         C  0.00770025  0.26130746  0.77156759     0.05700
C78         C  0.01298674  0.21480884  0.75485450    -0.08300
H79         H  0.98479823  0.23457850  0.64158036     0.11300
H80         H  0.99082573  0.33093550  0.75275239     0.08900
H81         H  0.02424056  0.18777011  0.77803648     0.08700
C82         C  0.00420423  0.69416375  0.21925497     0.05800
C83         C  0.96255636  0.68075308  0.23954871    -0.10400
C84         C  0.94418037  0.70472598  0.27697975     0.03300
C85         C  0.96351259  0.74585199  0.29180132    -0.08900
C86         C  0.00634489  0.76031158  0.27578628     0.05700
C87         C  0.02749888  0.73417548  0.23858403    -0.08300
H88         H  0.94686477  0.64822934  0.22953582     0.11300
H89         H  0.94845471  0.76286110  0.32168021     0.08900
H90         H  0.06118541  0.74399242  0.22583585     0.08700
O91         O  0.01927476  0.05717025  0.36408661    -0.83900
O92         O  0.01725725  0.04865710  0.63083187    -0.84000
O93         O  0.94620334  0.11117239  0.49443485    -0.85700
O94         O  0.08899659  0.11064222  0.51187588    -0.84500
O95         O  0.14627966  0.05605475  0.51642883    -0.84000
O96         O  0.88939969  0.05595296  0.49204999    -0.85400
O97         O  0.01417071  0.10623071  0.57610332    -0.83900
O98         O  0.02448856  0.11202110  0.42100525    -0.83500
Zr99       Zr  0.01921890  0.07127415  0.49698598     2.84300
O100        O  0.06582068  0.02492663  0.54559730    -1.05500
O101        O  0.97159201  0.02913887  0.44602991    -1.06200
C102        C  0.02278663  0.09946114  0.37783874     1.09200
C103        C  0.01474357  0.09181463  0.61878538     1.09200
C104        C  0.90393886  0.09794645  0.49225569     1.12200
C105        C  0.13021921  0.09761142  0.52012832     1.10000
H106        H  0.95435880  0.04093541  0.56193921     0.35500
O107        O  0.97388350  0.02229047  0.54231796    -1.26400
H108        H  0.08891308  0.04760146  0.42977319     0.35200
O109        O  0.06911550  0.02785849  0.44792481    -1.28100
O110        O  0.02346688  0.89656977  0.62739499    -0.83900
O111        O  0.03007890  0.90558729  0.36271122    -0.85400
O112        O  0.88879025  0.97794578  0.57150386    -0.83900
O113        O  0.15023932  0.96758571  0.57553673    -0.84000
O114        O  0.15150778  0.98006546  0.41966744    -0.83700
O115        O  0.88813763  0.97767713  0.41454614    -0.83500
O116        O  0.93840032  0.85613607  0.51422312    -0.83900
O117        O  0.08485987  0.85733063  0.45681632    -0.83300
O118        O  0.88369621  0.91206067  0.50113249    -0.84400
O119        O  0.14098961  0.91257753  0.45893356    -0.83600
O120        O  0.94412291  0.96972064  0.62800928    -0.84000
O121        O  0.94525927  0.98131955  0.35990877    -0.83700
O122        O  0.09587376  0.97405380  0.36403191    -0.83300
O123        O  0.09344179  0.96910400  0.63080439    -0.83700
O124        O  0.02594924  0.84220725  0.56991950    -0.84000
O125        O  0.01935008  0.84827089  0.41584775    -0.85400
Zr126      Zr  0.01989748  0.97343123  0.58952164     2.83100
Zr127      Zr  0.01961468  0.98110343  0.40179884     2.83500
Zr128      Zr  0.92599316  0.98058335  0.49260737     2.84100
Zr129      Zr  0.11232385  0.98028154  0.49776106     2.83400
Zr130      Zr  0.01599542  0.88548341  0.49443700     2.84200
O131        O  0.03504516  0.96307416  0.47954108    -1.05900
O132        O  0.96986960  0.93136643  0.54105234    -1.05400
C133        C  0.02656459  0.85408661  0.61356918     1.09200
C134        C  0.02635555  0.86246505  0.37368845     1.11800
C135        C  0.90158808  0.97275856  0.61454017     1.09400
C136        C  0.13610933  0.96575399  0.61846631     1.09800
C137        C  0.13858934  0.97647814  0.37661506     1.09300
C138        C  0.90224804  0.97875815  0.37176866     1.08900
C139        C  0.89672975  0.87240998  0.51499151     1.09300
C140        C  0.12416742  0.87403905  0.44544323     1.08800
H141        H  0.95150618  0.91191964  0.42472509     0.35500
O142        O  0.97062622  0.93086420  0.44422723    -1.27000
H143        H  0.08857194  0.90562368  0.55849529     0.35500
O144        O  0.06882649  0.92640542  0.54136849    -1.28400
C145        C  0.20242886  0.28844946  0.49139952     0.05800
C146        C  0.24855697  0.27773762  0.47450535    -0.10400
C147        C  0.27003475  0.23389185  0.48605273     0.03300
C148        C  0.24621224  0.20384046  0.51425438    -0.08900
C149        C  0.20116500  0.21189181  0.52650615     0.05700
C150        C  0.17924412  0.25356883  0.51584887    -0.08300
H151        H  0.26675819  0.30230611  0.45307149     0.11300
H152        H  0.26135693  0.17054397  0.52297863     0.08900
H153        H  0.14337721  0.25823352  0.52546849     0.08700
C154        C  0.78390871  0.27691234  0.49294786     0.05800
C155        C  0.73634338  0.26316502  0.49418657    -0.10400
C156        C  0.72459831  0.21514216  0.49125369     0.03300
C157        C  0.76008331  0.18284297  0.48756368    -0.08900
C158        C  0.80595347  0.19663572  0.48697949     0.05700
C159        C  0.81778843  0.24296524  0.48918097    -0.08300
H160        H  0.70944258  0.28888749  0.49741192     0.11300
H161        H  0.75200361  0.14628905  0.48591297     0.08900
H162        H  0.85400591  0.25260056  0.48877591     0.08700
C163        C  0.70867667  0.79981199  0.50605871     0.05800
C164        C  0.74237331  0.82505930  0.52989966    -0.10400
C165        C  0.78383897  0.80435187  0.54310336     0.03300
C166        C  0.79171556  0.75806284  0.53578802    -0.08900
C167        C  0.76290799  0.73251248  0.50762176     0.05700
C168        C  0.71992132  0.75299066  0.49278525    -0.08300
H169        H  0.73763738  0.86177328  0.53558456     0.11300
H170        H  0.82488651  0.74370577  0.54608722     0.08900
H171        H  0.69655080  0.73361406  0.47105444     0.08700
C172        C  0.26401793  0.79765555  0.48348969     0.05800
C173        C  0.25290113  0.80711408  0.43760382    -0.10400
C174        C  0.21437845  0.78716105  0.41718099     0.03300
C175        C  0.19487887  0.74760798  0.43599391    -0.08900
C176        C  0.20257754  0.73604424  0.48209034     0.05700
C177        C  0.23766382  0.76196084  0.50693985    -0.08300
H178        H  0.26816547  0.83708928  0.42101798     0.11300
H179        H  0.16583142  0.73208702  0.41806793     0.08900
H180        H  0.24343254  0.75541986  0.54324866     0.08700
C181        C  0.79196285  0.98034982  0.27957567     0.05800
C182        C  0.75481222  0.99304401  0.30762383    -0.10400
C183        C  0.71065430  0.99742514  0.28932882     0.03300
C184        C  0.70181957  0.98959260  0.24335643    -0.08900
C185        C  0.73667349  0.97715011  0.21321538     0.05700
C186        C  0.78299295  0.97216086  0.23109501    -0.08300
H187        H  0.76009022  0.99904663  0.34422304     0.11300
H188        H  0.66654358  0.99297148  0.23092385     0.08900
H189        H  0.81086764  0.96229101  0.20829402     0.08700
O190        O  0.41833263  0.15119819  0.47441492    -0.83900
O191        O  0.40499592  0.88513258  0.49944638    -0.84000
O192        O  0.36114272  0.05033644  0.42382463    -0.85700
O193        O  0.36279082  0.03464681  0.57287831    -0.84500
O194        O  0.42189914  0.03443711  0.62579739    -0.84000
O195        O  0.41541388  0.04532230  0.36703187    -0.89600
O196        O  0.35117090  0.94338997  0.50112338    -0.83900
O197        O  0.35935341  0.09958794  0.48186202    -0.83500
Zr198      Zr  0.39327843  0.02020137  0.49508875     2.84300
O199        O  0.43859902  0.97203593  0.54154935    -1.05500
O200        O  0.47065555  0.03282370  0.47454509    -1.06200
C201        C  0.37510035  0.14126817  0.47509469     1.09200
C202        C  0.36283000  0.89962636  0.50239364     1.09200
C203        C  0.37632676  0.05790631  0.38294230     1.12200
C204        C  0.37991933  0.04025600  0.61372323     1.10000
H205        H  0.41125406  0.95213503  0.42477134     0.35500
O206        O  0.43257696  0.96996767  0.44334575    -1.26400
H207        H  0.42439528  0.09160155  0.55493700     0.35200
O208        O  0.44182925  0.06944691  0.53731805    -1.28100
O209        O  0.55648126  0.88089824  0.49066301    -0.83900
O210        O  0.56685836  0.14732534  0.49117285    -0.85400
O211        O  0.47845183  0.93552812  0.35875572    -0.83900
O212        O  0.48607042  0.94282899  0.62400310    -0.84000
O213        O  0.49056515  0.10005006  0.61756173    -0.83700
O214        O  0.47632299  0.09021550  0.35848064    -0.83500
O215        O  0.61691674  0.01428152  0.41456070    -0.83900
O216        O  0.61971523  0.02111185  0.55758233    -0.83300
O217        O  0.56031634  0.00975463  0.35933963    -0.84400
O218        O  0.56682581  0.02523382  0.61656667    -0.83600
O219        O  0.47679729  0.88074973  0.41597828    -0.84000
O220        O  0.47844818  0.14699035  0.41296496    -0.83700
O221        O  0.49004320  0.15368737  0.55935572    -0.83300
O222        O  0.48154265  0.88523019  0.56940204    -0.83700
O223        O  0.61429701  0.93538069  0.48836794    -0.84000
O224        O  0.62072041  0.08959632  0.48740240    -0.85400
Zr225      Zr  0.48106062  0.92221046  0.49150614     2.83100
Zr226      Zr  0.49106354  0.11002642  0.48755405     2.83500
Zr227      Zr  0.48511490  0.01313112  0.39737006     2.84100
Zr228      Zr  0.49004989  0.02048869  0.58316414     2.83400
Zr229      Zr  0.57866529  0.01440592  0.48657061     2.84200
O230        O  0.53823393  0.06534397  0.53525787    -1.05900
O231        O  0.53113190  0.96481521  0.44227237    -1.05400
C232        C  0.59978623  0.89271783  0.48957391     1.09200
C233        C  0.60893849  0.13285474  0.49003159     1.11800
C234        C  0.47662214  0.89267115  0.37266738     1.09400
C235        C  0.48315901  0.89919637  0.61209871     1.09800
C236        C  0.48967171  0.14241399  0.60231483     1.09300
C237        C  0.47460365  0.13332938  0.37099749     1.08900
C238        C  0.60265083  0.01183900  0.37298259     1.09300
C239        C  0.60808474  0.02560361  0.59994589     1.08800
H240        H  0.55366394  0.08201845  0.41707738     0.35500
O241        O  0.53484545  0.06354534  0.43725559    -1.27000
H242        H  0.55057951  0.95087038  0.55425082     0.35500
O243        O  0.53124906  0.97004848  0.53503308    -1.28400
C244        C  0.29738497  0.97657560  0.77893047     0.05800
C245        C  0.25579076  0.95717519  0.75919838    -0.10400
C246        C  0.23626668  0.97718608  0.71785686     0.03300
C247        C  0.25778821  0.01534768  0.69875627    -0.08900
C248        C  0.29894558  0.03179996  0.71617288     0.05700
C249        C  0.31831756  0.01339254  0.75596531    -0.08300
H250        H  0.23981422  0.92727211  0.77484155     0.11300
H251        H  0.24500717  0.02955517  0.66642378     0.08900
H252        H  0.35171897  0.02598111  0.76739861     0.08700
C253        C  0.78780007  0.97842510  0.70062140     0.05800
C254        C  0.77267727  0.96594898  0.74658570    -0.10400
C255        C  0.72593990  0.97608098  0.76089614     0.03300
C256        C  0.69693598  0.99801041  0.72991999    -0.08900
C257        C  0.71172966  0.00963343  0.68623177     0.05700
C258        C  0.75618381  0.99994073  0.67135525    -0.08300
H259        H  0.79618319  0.94891335  0.77008242     0.11300
H260        H  0.66136349  0.00524205  0.73948789     0.08900
H261        H  0.76590525  0.00853923  0.63619937     0.08700
C262        C  0.30841425  0.00226796  0.22423769     0.05800
C263        C  0.32249329  0.04363909  0.24487163    -0.10400
C264        C  0.29796577  0.06282759  0.28170401     0.03300
C265        C  0.25635989  0.04399202  0.29604152    -0.08900
C266        C  0.24158845  0.00128666  0.27988097     0.05700
C267        C  0.26767647  0.97992947  0.24289130    -0.08300
H268        H  0.35555713  0.05852901  0.23545628     0.11300
H269        H  0.23910441  0.05924246  0.32567377     0.08900
H270        H  0.25737657  0.94648227  0.22990903     0.08700
O271        O  0.66012812  0.97476370  0.05929588    -0.83900
O272        O  0.39119033  0.97229451  0.07900412    -0.84000
O273        O  0.53650647  0.05076720  0.12204178    -0.85700
O274        O  0.54482344  0.90203694  0.12412717    -0.84500
O275        O  0.54622237  0.84515936  0.06858996    -0.84000
O276        O  0.52803825  0.10540646  0.06514315    -0.85400
O277        O  0.45069394  0.97441813  0.13156670    -0.83900
O278        O  0.60812472  0.97374741  0.11918017    -0.83500
Zr279      Zr  0.52677866  0.97469417  0.08790678     2.84300
O280        O  0.47854307  0.92521139  0.04434944    -1.05500
O281        O  0.56875262  0.02180394  0.03709382    -1.06200
C282        C  0.65017123  0.97331794  0.10272348     1.09200
C283        C  0.40665003  0.97411011  0.12099169     1.09200
C284        C  0.53583001  0.09252027  0.10669696     1.12200
C285        C  0.55319156  0.86090830  0.10972403     1.10000
H286        H  0.45689884  0.03796703  0.06394502     0.35500
O287        O  0.47493072  0.01876097  0.04355455    -1.26400
H288        H  0.59363817  0.91316558  0.05311515     0.35200
O289        O  0.57059488  0.93033578  0.03624335    -1.28100
O290        O  0.38171281  0.96362034  0.92726997    -0.83900
O291        O  0.65059675  0.97100787  0.91222647    -0.85400
O292        O  0.43934004  0.10365227  0.00063978    -0.83900
O293        O  0.44696010  0.83770809  0.00376529    -0.84000
O294        O  0.60331148  0.84334550  0.99324818    -0.83700
O295        O  0.59377757  0.10675841  0.99005226    -0.83500
O296        O  0.50453550  0.04974077  0.86379040    -0.83900
O297        O  0.53002384  0.90370361  0.86083107    -0.83300
O298        O  0.50663056  0.10477448  0.92087077    -0.84400
O299        O  0.54213880  0.84882844  0.91701852    -0.83600
O300        O  0.38444425  0.04639050  0.00234494    -0.84000
O301        O  0.65173487  0.05272247  0.98765940    -0.83700
O302        O  0.65648805  0.90205644  0.98859164    -0.83300
O303        O  0.38982549  0.89264919  0.00967470    -0.83700
O304        O  0.43436649  0.96452567  0.86776337    -0.84000
O305        O  0.59184622  0.97201239  0.85896672    -0.85400
Zr306      Zr  0.42546237  0.96991137  0.00072628     2.83100
Zr307      Zr  0.61475025  0.97664153  0.98783575     2.83500
Zr308      Zr  0.51730681  0.06648445  0.99335929     2.84100
Zr309      Zr  0.52396304  0.87889347  0.99448199     2.83400
Zr310      Zr  0.51434303  0.97414117  0.90025058     2.84200
O311        O  0.56404860  0.92984866  0.94610307    -1.05900
O312        O  0.46851988  0.01783054  0.95081833    -1.05400
C313        C  0.39226177  0.96202631  0.88371650     1.09200
C314        C  0.63560957  0.96976460  0.87044616     1.11800
C315        C  0.39654110  0.08978129  0.00264184     1.09400
C316        C  0.40373463  0.85007522  0.00957378     1.09800
C317        C  0.64569460  0.85873251  0.99116143     1.09300
C318        C  0.63716510  0.09482213  0.98903045     1.08900
C319        C  0.50222218  0.09165325  0.87886952     1.09300
C320        C  0.54425973  0.86436307  0.87517028     1.08800
H321        H  0.58092030  0.04233352  0.92256338     0.35500
O322        O  0.56367303  0.02243256  0.94311936    -1.27000
H323        H  0.45314075  0.90387031  0.93249384     0.35500
O324        O  0.47220131  0.92445948  0.95041653    -1.28400
C325        C  0.48586590  0.27385958  0.19369582     0.05800
C326        C  0.47076022  0.26209610  0.23969263    -0.10400
C327        C  0.48347159  0.21826799  0.25954164     0.03300
C328        C  0.51039870  0.18832648  0.23370504    -0.08900
C329        C  0.52366377  0.19920632  0.18928322     0.05700
C330        C  0.51205025  0.24138610  0.16938044    -0.08300
H331        H  0.44957048  0.28595937  0.25908764     0.11300
H332        H  0.51911903  0.15448617  0.24741846     0.08900
H333        H  0.52203245  0.24818757  0.13392592     0.08700
C334        C  0.49588480  0.79241058  0.26992144     0.05800
C335        C  0.53753381  0.80572123  0.24945619    -0.10400
C336        C  0.55596679  0.78132856  0.21224617     0.03300
C337        C  0.53649722  0.74017555  0.19765986    -0.08900
C338        C  0.49328459  0.72641917  0.21325803     0.05700
C339        C  0.47230101  0.75272556  0.25038270    -0.08300
H340        H  0.55329226  0.83825691  0.25931365     0.11300
H341        H  0.55161760  0.72279375  0.16802074     0.08900
H342        H  0.43849100  0.74321101  0.26301079     0.08700
C343        C  0.50478460  0.79932336  0.71546287     0.05800
C344        C  0.54886092  0.81086575  0.73141513    -0.10400
C345        C  0.56835289  0.78779284  0.76888556     0.03300
C346        C  0.55118744  0.74534361  0.78262680    -0.08900
C347        C  0.50526708  0.73431249  0.77391924     0.05700
C348        C  0.48122060  0.76156383  0.73905948    -0.08300
H349        H  0.56466652  0.84281837  0.71988024     0.11300
H350        H  0.56908495  0.72736645  0.81028673     0.08900
H351        H  0.44547057  0.75423216  0.73122314     0.08700
C352        C  0.48294888  0.28233283  0.77875972     0.05800
C353        C  0.48317685  0.27276245  0.73009548    -0.10400
C354        C  0.48284462  0.22583426  0.71427599     0.03300
C355        C  0.48229443  0.19041942  0.74649535    -0.08900
C356        C  0.48273115  0.19962217  0.79323067     0.05700
C357        C  0.48257872  0.24495259  0.80953332    -0.08300
H358        H  0.48413213  0.30082189  0.70545394     0.11300
H359        H  0.48291264  0.15469076  0.73503167     0.08900
H360        H  0.48332718  0.25110845  0.84645549     0.08700
O361        O  0.02388101  0.33718716  0.07033126    -0.83900
O362        O  0.02356620  0.60520277  0.07488923    -0.84000
O363        O  0.08146215  0.44061881  0.12747206    -0.85700
O364        O  0.93699565  0.47249805  0.12602471    -0.84500
O365        O  0.88387898  0.47113240  0.06735631    -0.84000
O366        O  0.13758920  0.43393121  0.07279221    -0.85400
O367        O  0.01986194  0.54949197  0.13119196    -0.83900
O368        O  0.02228998  0.39249707  0.12639411    -0.83500
Zr369      Zr  0.01389423  0.47171893  0.09170935     2.84300
O370        O  0.97055338  0.52140551  0.04551166    -1.05500
O371        O  0.03283568  0.45352565  0.01513053    -1.06200
C372        C  0.02548620  0.34985461  0.11253625     1.09200
C373        C  0.02268209  0.59261574  0.11790004     1.09200
C374        C  0.12085073  0.42708229  0.11316577     1.12200
C375        C  0.89559080  0.47098953  0.10974405     1.10000
H376        H  0.08761006  0.53325946  0.07034019     0.35500
O377        O  0.06791572  0.51606619  0.04964021    -1.26400
H378        H  0.94762719  0.40279190  0.06639484     0.35200
O379        O  0.96747861  0.42186047  0.04757706    -1.28100
O380        O  0.02544534  0.60233295  0.92089736    -0.83900
O381        O  0.01520026  0.33493899  0.92495236    -0.85400
O382        O  0.15269553  0.54391367  0.00904451    -0.83900
O383        O  0.88940733  0.55090941  0.99719296    -0.84000
O384        O  0.88403370  0.39700559  0.99683473    -0.83700
O385        O  0.14509194  0.38821028  0.01280627    -0.83500
O386        O  0.09350108  0.45338003  0.86952654    -0.83900
O387        O  0.94534173  0.46283241  0.86936475    -0.83300
O388        O  0.14924435  0.45521122  0.92594932    -0.84400
O389        O  0.88907226  0.46876666  0.92509231    -0.83600
O390        O  0.09889626  0.60220282  0.00670653    -0.84000
O391        O  0.08659774  0.33550781  0.01186403    -0.83700
O392        O  0.93774668  0.33909302  0.99439940    -0.83300
O393        O  0.94667895  0.60589572  0.99853156    -0.83700
O394        O  0.02420858  0.54555820  0.86519672    -0.84000
O395        O  0.01985480  0.38961834  0.86801277    -0.85400
Zr396      Zr  0.02282320  0.56489351  0.99921548     2.83100
Zr397      Zr  0.01361036  0.37668231  0.99793527     2.83500
Zr398      Zr  0.11120303  0.46719636  0.00054859     2.84100
Zr399      Zr  0.92618821  0.47235917  0.99779670     2.83400
Zr400      Zr  0.02087448  0.46802116  0.90549634     2.84200
O401        O  0.96915230  0.42276999  0.94937130    -1.05900
O402        O  0.06952293  0.51638968  0.95115768    -1.05400
C403        C  0.02542408  0.58900223  0.87782813     1.09200
C404        C  0.01803221  0.34689984  0.88228787     1.11800
C405        C  0.14095684  0.58759627  0.01076592     1.09400
C406        C  0.90335731  0.59375468  0.99806186     1.09800
C407        C  0.89564494  0.35361881  0.99529026     1.09300
C408        C  0.12964776  0.34606395  0.01516612     1.08900
C409        C  0.13487893  0.44846482  0.88425955     1.09300
C410        C  0.90323173  0.46325047  0.88369993     1.08800
H411        H  0.08463297  0.39665649  0.93638781     0.35500
O412        O  0.06618213  0.41856595  0.95332350    -1.27000
H413        H  0.95779839  0.53637983  0.93258992     0.35500
O414        O  0.97626878  0.51701953  0.95239473    -1.28400
C415        C  0.70631350  0.49692434  0.20685710     0.05800
C416        C  0.74140289  0.48240635  0.17705363    -0.10400
C417        C  0.78665884  0.47853385  0.19256759     0.03300
C418        C  0.79867019  0.48812989  0.23747935    -0.08900
C419        C  0.76626779  0.50257890  0.26929211     0.05700
C420        C  0.71878639  0.50735272  0.25426039    -0.08300
H421        H  0.73377890  0.47529206  0.14107156     0.11300
H422        H  0.83475556  0.48525955  0.24752819     0.08900
H423        H  0.69271301  0.51903191  0.27829386     0.08700
C424        C  0.19499514  0.48747561  0.26648994     0.05800
C425        C  0.17995909  0.44494981  0.24919769    -0.10400
C426        C  0.20189596  0.42404592  0.21172956     0.03300
C427        C  0.24224829  0.44235312  0.19355396    -0.08900
C428        C  0.25752939  0.48602974  0.20632153     0.05700
C429        C  0.23389635  0.50917743  0.24378322    -0.08300
H430        H  0.14780235  0.43037213  0.26172813     0.11300
H431        H  0.25758773  0.42568806  0.16363172     0.08900
H432        H  0.24465745  0.54339170  0.25413213     0.08700
C433        C  0.20446176  0.50470024  0.71474241     0.05800
C434        C  0.18866009  0.46679188  0.74017091    -0.10400
C435        C  0.21310545  0.45048621  0.77831692     0.03300
C436        C  0.25530798  0.46897862  0.79031110    -0.08900
C437        C  0.27138487  0.50907858  0.76979546     0.05700
C438        C  0.24607859  0.52749406  0.73076390    -0.08300
H439        H  0.15504385  0.45212363  0.73256337     0.11300
H440        H  0.27248923  0.45579652  0.82100705     0.08900
H441        H  0.25776546  0.55879300  0.71410177     0.08700
C442        C  0.71946219  0.49141802  0.78736124     0.05800
C443        C  0.75389702  0.47323787  0.81566421    -0.10400
C444        C  0.79743059  0.46386289  0.79801337     0.03300
C445        C  0.80801615  0.47147354  0.75228992    -0.08900
C446        C  0.77591624  0.49062072  0.72253555     0.05700
C447        C  0.73044586  0.50075146  0.73976740    -0.08300
H448        H  0.74741801  0.46802548  0.85220981     0.11300
H449        H  0.84303717  0.46497611  0.74042455     0.08900
H450        H  0.70488711  0.51609108  0.71727759     0.08700
C451        C  0.30350998  0.20131619  0.99536824     0.05800
C452        C  0.25805025  0.21243161  0.01325178    -0.10400
C453        C  0.23531654  0.25484710  0.99966088     0.03300
C454        C  0.25722841  0.28320743  0.96821388    -0.08900
C455        C  0.30233236  0.27552442  0.95550934     0.05700
C456        C  0.32542186  0.23498270  0.96815514    -0.08300
H457        H  0.24124195  0.18917747  0.03713170     0.11300
H458        H  0.24103218  0.31558195  0.95807967     0.08900
H459        H  0.36122839  0.23049437  0.95820528     0.08700
O460        O  0.47352627  0.42800027  0.11909688    -0.83900
O461        O  0.48963733  0.43930883  0.85347865    -0.84000
O462        O  0.41447081  0.37636470  0.96959200    -0.85700
O463        O  0.55718790  0.37679716  0.98616339    -0.84500
O464        O  0.61383548  0.43172051  0.99321212    -0.84000
O465        O  0.35652308  0.43035178  0.97049601    -0.85400
O466        O  0.48679120  0.38094757  0.90695008    -0.83900
O467        O  0.47750416  0.37422662  0.06069570    -0.83500
Zr468      Zr  0.48361054  0.41617915  0.98518187     2.84300
O469        O  0.53448464  0.46192112  0.94113680    -1.05500
O470        O  0.43263230  0.45756220  0.03453069    -1.06200
C471        C  0.47454638  0.38574114  0.10417783     1.09200
C472        C  0.48798557  0.39598238  0.86470628     1.09200
C473        C  0.37280877  0.38923939  0.96394168     1.12200
C474        C  0.59944181  0.38996030  0.98932401     1.10000
H475        H  0.42073978  0.44756936  0.91380441     0.35500
O476        O  0.43843877  0.46454703  0.93630746    -1.26400
H477        H  0.54329271  0.44066477  0.05684176     0.35200
O478        O  0.52558076  0.46102878  0.03734366    -1.28100
O479        O  0.48385551  0.59150746  0.86235513    -0.83900
O480        O  0.47303057  0.58136953  0.12664047    -0.85400
O481        O  0.35683595  0.52000396  0.90775630    -0.83900
O482        O  0.61956989  0.50751883  0.91903257    -0.84000
O483        O  0.60920791  0.50236926  0.07500828    -0.83700
O484        O  0.34720612  0.50811145  0.06267296    -0.83500
O485        O  0.42077963  0.63197229  0.95525460    -0.83900
O486        O  0.56285105  0.62949282  0.02348532    -0.83300
O487        O  0.36374571  0.57774711  0.95368427    -0.84400
O488        O  0.61812365  0.57425912  0.01023556    -0.83600
O489        O  0.41611325  0.52669860  0.85615022    -0.84000
O490        O  0.40028276  0.50698229  0.12151591    -0.83700
O491        O  0.55032835  0.50444726  0.12837908    -0.83300
O492        O  0.56619707  0.50839296  0.86056857    -0.83700
O493        O  0.48865786  0.64531737  0.91976461    -0.84000
O494        O  0.47393112  0.63937115  0.07262574    -0.85400
Zr495      Zr  0.49003781  0.51323643  0.89681038     2.83100
Zr496      Zr  0.47640324  0.50638480  0.08457850     2.83500
Zr497      Zr  0.39076772  0.50672953  0.98639404     2.84100
Zr498      Zr  0.57673970  0.50628724  0.99431631     2.83400
Zr499      Zr  0.48717124  0.60148679  0.99552702     2.84200
O500        O  0.52924181  0.55192137  0.04245351    -1.05900
O501        O  0.46909152  0.52531683  0.97425527    -1.05400
C502        C  0.48537566  0.63391842  0.87620641     1.09200
C503        C  0.47172240  0.62474805  0.11524687     1.11800
C504        C  0.37266918  0.52631098  0.86616573     1.09400
C505        C  0.60814062  0.50726626  0.87546898     1.09800
C506        C  0.59385860  0.50304768  0.11745420     1.09300
C507        C  0.35828660  0.50813769  0.10659874     1.08900
C508        C  0.38145580  0.61648478  0.94237085     1.09300
C509        C  0.60440893  0.61304644  0.02582538     1.08800
H510        H  0.41032744  0.57657219  0.05391398     0.35500
O511        O  0.43132133  0.55724054  0.03648700    -1.27000
H512        H  0.55743958  0.57981214  0.92897551     0.35500
O513        O  0.53656087  0.55981892  0.94585000    -1.28400
C514        C  0.79227930  0.68543900  0.01483113     0.05800
C515        C  0.78070285  0.73206045  0.00082467    -0.10400
C516        C  0.73704608  0.75232216  0.01417207     0.03300
C517        C  0.70778095  0.72675472  0.04186838    -0.08900
C518        C  0.71657577  0.68094900  0.05137355     0.05700
C519        C  0.75848857  0.66037487  0.03894106    -0.08300
H520        H  0.80438133  0.75147456  0.97947585     0.11300
H521        H  0.67418814  0.74087407  0.05104980     0.08900
H522        H  0.76372240  0.62394503  0.04583312     0.08700
C523        C  0.24191368  0.68740913  0.99812905     0.05800
C524        C  0.26644624  0.72436129  0.02153076    -0.10400
C525        C  0.30157145  0.75053606  0.99709663     0.03300
C526        C  0.31023742  0.73905805  0.95127350    -0.08900
C527        C  0.29091946  0.70004165  0.93145493     0.05700
C528        C  0.25509738  0.67670159  0.95313702    -0.08300
H529        H  0.25915654  0.73181688  0.05739405     0.11300
H530        H  0.33864129  0.75575716  0.93334585     0.08900
H531        H  0.24148424  0.64576609  0.93686589     0.08700
C532        C  0.71866078  0.21100742  0.99174146     0.05800
C533        C  0.76649684  0.22405375  0.99372238    -0.10400
C534        C  0.77903978  0.27207257  0.99343919     0.03300
C535        C  0.74397400  0.30499116  0.99150454    -0.08900
C536        C  0.69793417  0.29183280  0.98972930     0.05700
C537        C  0.68537511  0.24565276  0.98981865    -0.08300
H538        H  0.79301103  0.19778614  0.99522762     0.11300
H539        H  0.75254378  0.34147166  0.99135583     0.08900
H540        H  0.64902223  0.23663288  0.98838374     0.08700
C541        C  0.66296756  0.32618002  0.98847265    -0.10600
C542        C  0.63360472  0.35508670  0.98850715    -0.12200
C543        C  0.35337395  0.64553019  0.91476703    -0.10600
C544        C  0.32271867  0.67196030  0.90726507    -0.12200
C545        C  0.63964575  0.63816973  0.04832833    -0.10600
C546        C  0.67626726  0.65414011  0.05854240    -0.12200
C547        C  0.32676054  0.31612624  0.94335792    -0.10600
C548        C  0.34374740  0.35330683  0.94857526    -0.12200
C549        C  0.64460358  0.50509043  0.83997175    -0.10600
C550        C  0.67550892  0.50124144  0.81111800    -0.12200
C551        C  0.31058587  0.52935874  0.79587140    -0.10600
C552        C  0.33947247  0.53185520  0.82728173    -0.12200
C553        C  0.29356567  0.50496969  0.17487005    -0.10600
C554        C  0.32176382  0.50889825  0.14291184    -0.12200
C555        C  0.66009996  0.50150161  0.18453461    -0.10600
C556        C  0.62833900  0.50242902  0.15582002    -0.12200
C557        C  0.83569742  0.65960522  0.00359265    -0.10600
C558        C  0.86747742  0.63102634  0.99957288    -0.12200
C559        C  0.82611369  0.29138836  0.99456519    -0.10600
C560        C  0.85892869  0.31830730  0.99486083    -0.12200
C561        C  0.20611191  0.65532061  0.01654994    -0.10600
C562        C  0.17715298  0.62376875  0.01709982    -0.12200
C563        C  0.16278685  0.30709798  0.01996980    -0.10600
C564        C  0.19233487  0.27635938  0.01725040    -0.12200
C565        C  0.83460252  0.45510213  0.82791451    -0.10600
C566        C  0.86804284  0.45652580  0.85140666    -0.12200
C567        C  0.16662842  0.43368934  0.85034150    -0.10600
C568        C  0.18837793  0.43080232  0.81552884    -0.12200
C569        C  0.17364724  0.40068701  0.17921210    -0.10600
C570        C  0.14901910  0.40462231  0.14636927    -0.12200
C571        C  0.85828467  0.46876639  0.14042986    -0.10600
C572        C  0.82348510  0.46986324  0.16204365    -0.12200
C573        C  0.48484395  0.32865941  0.80011932    -0.10600
C574        C  0.48666139  0.36129705  0.82728461    -0.12200
C575        C  0.48366642  0.67057436  0.83933419    -0.10600
C576        C  0.48650173  0.69902754  0.80708151    -0.12200
C577        C  0.47292531  0.68863708  0.18467000    -0.10600
C578        C  0.46906027  0.65937183  0.15354821    -0.12200
C579        C  0.47544538  0.31699758  0.16804430    -0.10600
C580        C  0.47327054  0.34858536  0.13947808    -0.12200
C581        C  0.67264152  0.13125660  0.98993500    -0.10600
C582        C  0.69974601  0.16384446  0.99111396    -0.12200
C583        C  0.36696250  0.81410891  0.01553110    -0.10600
C584        C  0.33464983  0.78583048  0.01510515    -0.12200
C585        C  0.71517059  0.79580989  0.99818782    -0.10600
C586        C  0.68468129  0.82528580  0.99295192    -0.12200
C587        C  0.35936803  0.12593003  0.00488677    -0.10600
C588        C  0.33074356  0.15802318  0.00410630    -0.12200
C589        C  0.49361472  0.12775354  0.84692336    -0.10600
C590        C  0.48714319  0.16131421  0.82372546    -0.12200
C591        C  0.57844732  0.81613863  0.80751208    -0.10600
C592        C  0.56641843  0.83694332  0.84112642    -0.12200
C593        C  0.57232543  0.83070317  0.14306231    -0.10600
C594        C  0.57706251  0.80730975  0.17663037    -0.12200
C595        C  0.54288711  0.12876770  0.13834559    -0.10600
C596        C  0.54034291  0.16255846  0.16160898    -0.12200
C597        C  0.34018925  0.98397857  0.18762218    -0.10600
C598        C  0.37099854  0.97738925  0.15840951    -0.12200
C599        C  0.67193621  0.96604349  0.83464844    -0.10600
C600        C  0.70268487  0.96614042  0.80517545    -0.12200
C601        C  0.32345936  0.96040491  0.81998176    -0.10600
C602        C  0.35363413  0.95823632  0.85009011    -0.12200
C603        C  0.47017990  0.19857382  0.30449716    -0.10600
C604        C  0.46923991  0.16976113  0.33571096    -0.12200
C605        C  0.47928838  0.82386096  0.30762658    -0.10600
C606        C  0.47556978  0.85483532  0.33720951    -0.12200
C607        C  0.48507899  0.20911483  0.66665377    -0.10600
C608        C  0.48741376  0.18057867  0.63554572    -0.12200
C609        C  0.48261088  0.86246126  0.64906803    -0.10600
C610        C  0.48647257  0.83143134  0.67879968    -0.12200
C611        C  0.34696648  0.08038184  0.35082578    -0.10600
C612        C  0.32367581  0.08492847  0.31709831    -0.12200
C613        C  0.67799041  0.02563500  0.65504611    -0.10600
C614        C  0.64512331  0.02978866  0.63091393    -0.12200
C615        C  0.35042524  0.05389591  0.64977796    -0.10600
C616        C  0.32757575  0.05414269  0.68383441    -0.12200
C617        C  0.71921670  0.97100550  0.16577213    -0.10600
C618        C  0.68960701  0.97100900  0.13518933    -0.12200
C619        C  0.63806069  0.01081459  0.33999241    -0.10600
C620        C  0.67229042  0.00701402  0.31773505    -0.12200
C621        C  0.29837870  0.83076504  0.50322393    -0.10600
C622        C  0.32653866  0.86301321  0.50604267    -0.12200
C623        C  0.66584296  0.82582735  0.49434059    -0.10600
C624        C  0.63486517  0.85507006  0.49062815    -0.12200
C625        C  0.67791250  0.19528335  0.49221321    -0.10600
C626        C  0.64540236  0.16815224  0.49162514    -0.12200
C627        C  0.31385412  0.21247220  0.47031563    -0.10600
C628        C  0.34257581  0.18075120  0.46921354    -0.12200
C629        C  0.86560323  0.97040611  0.65098992    -0.10600
C630        C  0.83366289  0.97063093  0.67924631    -0.12200
C631        C  0.16984266  0.96006447  0.65659331    -0.10600
C632        C  0.19740742  0.96066593  0.68911640    -0.12200
C633        C  0.20343205  0.98114927  0.30813398    -0.10600
C634        C  0.17411799  0.97625235  0.33905979    -0.12200
C635        C  0.86752270  0.97691018  0.33393323    -0.10600
C636        C  0.83685910  0.97661204  0.30419894    -0.12200
C637        C  0.18091682  0.81992188  0.40286043    -0.10600
C638        C  0.15243494  0.84675486  0.41603826    -0.12200
C639        C  0.82466518  0.83080210  0.54688203    -0.10600
C640        C  0.86089087  0.84655667  0.53528784    -0.12200
C641        C  0.87011256  0.13315184  0.48928620    -0.10600
C642        C  0.84127951  0.16256033  0.48702945    -0.12200
C643        C  0.15916939  0.13414792  0.53437472    -0.10600
C644        C  0.17611447  0.17153297  0.53828172    -0.12200
C645        C  0.02409823  0.63032531  0.15342298    -0.10600
C646        C  0.02095084  0.66208964  0.18220279    -0.12200
C647        C  0.02611477  0.79853717  0.30422065    -0.10600
C648        C  0.02928555  0.82782308  0.33541528    -0.12200
C649        C  0.01658846  0.27948157  0.81804253    -0.10600
C650        C  0.01875683  0.30890267  0.84849803    -0.12200
C651        C  0.01224204  0.12695952  0.65606506    -0.10600
C652        C  0.00959551  0.15901307  0.68407081    -0.12200
C653        C  0.02212002  0.65653704  0.81068812    -0.10600
C654        C  0.02578869  0.62602986  0.84103951    -0.12200
C655        C  0.02762872  0.78876478  0.68227995    -0.10600
C656        C  0.03013436  0.81773659  0.65051891    -0.12200
C657        C  0.16833482  0.70181164  0.50041450    -0.10600
C658        C  0.13559512  0.67400524  0.50255334    -0.12200
C659        C  0.82897885  0.35670833  0.49677785    -0.10600
C660        C  0.80198373  0.32414661  0.49582380    -0.12200
C661        C  0.14575704  0.36368666  0.48516212    -0.10600
C662        C  0.17532337  0.33232552  0.48461153    -0.12200
C663        C  0.78495119  0.68895380  0.49269267    -0.10600
C664        C  0.81600325  0.65988722  0.48965636    -0.12200
C665        C  0.13608542  0.51413708  0.33452707    -0.10600
C666        C  0.16568742  0.50728676  0.30421223    -0.12200
C667        C  0.81855469  0.51321688  0.34422001    -0.10600
C668        C  0.78753274  0.51149135  0.31493233    -0.12200
C669        C  0.17367212  0.51885854  0.67570057    -0.10600
C670        C  0.14253922  0.52134602  0.64626229    -0.12200
C671        C  0.82445103  0.50459841  0.64628053    -0.10600
C672        C  0.79536255  0.50112350  0.67691879    -0.12200
C673        C  0.92301301  0.67833389  0.31231353    -0.10600
C674        C  0.92750522  0.65468810  0.34578291    -0.12200
C675        C  0.97956936  0.32383190  0.66502461    -0.10600
C676        C  0.97935426  0.35768024  0.64150635    -0.12200
C677        C  0.93133529  0.65084326  0.64647679    -0.10600
C678        C  0.92382897  0.67233566  0.68079833    -0.12200
C679        C  0.03034553  0.31258961  0.14634553    -0.10600
C680        C  0.03018838  0.28337808  0.17684847    -0.12200
C681        C  0.02418054  0.16604590  0.31256117    -0.10600
C682        C  0.02474981  0.13514468  0.34160715    -0.12200
C683        C  0.97757483  0.32575606  0.32503843    -0.10600
C684        C  0.97479593  0.35923984  0.34828097    -0.12200
loop_ 
_geom_bond_atom_site_label_1 
_geom_bond_atom_site_label_2 
_geom_bond_distance 
_geom_bond_site_symmetry_2 
_ccdc_geom_bond_type 
C1            C2   1.396   1_455  A
C1            C6   1.439       .  A
C1          C681   1.473       .  S
C2            C3   1.388       .  A
C2            H7   1.086       .  S
C3            C4   1.375   1_655  A
C3          C683   1.405       .  S
C4            C5   1.384       .  A
C4            H8   1.088   1_455  S
C5            C6   1.436       .  A
C5          C680   1.460       .  S
C6            H9   1.082       .  S
O10         Zr46   2.428       .  S
O10          C21   1.288       .  A
O11         Zr45   2.439       .  S
O11          C22   1.290       .  A
O12         Zr18   2.528   1_455  S
O12          C23   1.309       .  A
O13         Zr18   2.520       .  S
O13          C24   1.307       .  A
O14         Zr48   2.432       .  S
O14          C24   1.288       .  A
O15         Zr47   2.507       .  S
O15          C23   1.304       .  A
O16         Zr18   2.393       .  S
O16          C22   1.281       .  A
O17         Zr18   2.371       .  S
O17          C21   1.278       .  A
Zr18         O19   2.339       .  S
Zr18         O20   2.349   1_655  S
Zr18         O28   2.358       .  S
Zr18         O26   2.350   1_655  S
O19         Zr45   2.344       .  S
O19         Zr48   2.363       .  S
O20         Zr46   2.350   1_455  S
O20         Zr47   2.359       .  S
C21         C684   1.396       .  S
C22         C676   1.415       .  S
C23         C661   1.509       .  S
C24         C659   1.470       .  S
H25          O26   0.967       .  S
O26         Zr45   2.353   1_455  S
O26         Zr47   2.373       .  S
H27          O28   0.968       .  S
O28         Zr46   2.349       .  S
O28         Zr48   2.348       .  S
O29         Zr45   2.399       .  S
O29          C52   1.284       .  A
O30         Zr46   2.397       .  S
O30          C53   1.283       .  A
O31         Zr47   2.489       .  S
O31          C54   1.300       .  A
O32         Zr48   2.442       .  S
O32          C55   1.289       .  A
O33         Zr48   2.449       .  S
O33          C56   1.290       .  A
O34         Zr47   2.498       .  S
O34          C57   1.302       .  A
O35         Zr49   2.552   1_455  S
O35          C58   1.315       .  A
O36         Zr49   2.521       .  S
O36          C59   1.308       .  A
O37         Zr47   2.479       .  S
O37          C58   1.298       .  A
O38         Zr48   2.466       .  S
O38          C59   1.294       .  A
O39         Zr45   2.531   1_455  S
O39          C54   1.310       .  A
O40         Zr46   2.522   1_455  S
O40          C57   1.308       .  A
O41         Zr46   2.536       .  S
O41          C56   1.311       .  A
O42         Zr45   2.520       .  S
O42          C55   1.308       .  A
O43         Zr49   2.458       .  S
O43          C52   1.295       .  A
O44         Zr49   2.453       .  S
O44          C53   1.293       .  A
Zr45         O51   2.367   1_655  S
Zr45         O63   2.360       .  S
Zr46         O50   2.334       .  S
Zr46         O61   2.385   1_655  S
Zr47         O51   2.378       .  S
Zr47         O61   2.388       .  S
Zr48         O50   2.328       .  S
Zr48         O63   2.325       .  S
Zr49         O50   2.342       .  S
Zr49         O51   2.366   1_655  S
Zr49         O63   2.356       .  S
Zr49         O61   2.384   1_655  S
C52         C677   1.416       .  S
C53         C674   1.419       .  S
C54         C670   1.499       .  S
C55         C671   1.473       .  S
C56         C667   1.487       .  S
C57         C665   1.500       .  S
C58         C658   1.504       .  S
C59         C664   1.485       .  S
H60          O61   0.965       .  S
H62          O63   0.963       .  S
C64          C65   1.400   1_455  A
C64          C69   1.460       .  A
C64         C653   1.511       .  S
C65          C66   1.396       .  A
C65          H70   1.086       .  S
C66          C67   1.385       .  A
C66         C678   1.414       .  S
C67          C68   1.388   1_655  A
C67          H71   1.089       .  S
C68          C69   1.458       .  A
C68         C655   1.502       .  S
C69          H72   1.082       .  S
C73          C74   1.402   1_455  A
C73          C78   1.442       .  A
C73         C652   1.486       .  S
C74          C75   1.395       .  A
C74          H79   1.085       .  S
C75          C76   1.379       .  A
C75         C675   1.421       .  S
C76          C77   1.386   1_655  A
C76          H80   1.088       .  S
C77          C78   1.440       .  A
C77         C649   1.469       .  S
C78          H81   1.082       .  S
C82          C83   1.398   1_455  A
C82          C87   1.454       .  A
C82         C646   1.501       .  S
C83          C84   1.394       .  A
C83          H88   1.086       .  S
C84          C85   1.385       .  A
C84         C673   1.418       .  S
C85          C86   1.390   1_655  A
C85          H89   1.088       .  S
C86          C87   1.453       .  A
C86         C647   1.495       .  S
C87          H90   1.082       .  S
O91        Zr127   2.461   1_545  S
O91         C102   1.293       .  A
O92        Zr126   2.488   1_545  S
O92         C103   1.301       .  A
O93         Zr99   2.412   1_655  S
O93         C104   1.285       .  A
O94         Zr99   2.362       .  S
O94         C105   1.276       .  A
O95        Zr129   2.467   1_545  S
O95         C105   1.296       .  A
O96        Zr128   2.428   1_545  S
O96         C104   1.288       .  A
O97         Zr99   2.511       .  S
O97         C103   1.306       .  A
O98         Zr99   2.503       .  S
O98         C102   1.304       .  A
Zr99        O100   2.369       .  S
Zr99        O101   2.362   1_455  S
Zr99        O109   2.387       .  S
Zr99        O107   2.338   1_455  S
O100       Zr126   2.371   1_545  S
O100       Zr129   2.326   1_545  S
O101       Zr127   2.349   1_645  S
O101       Zr128   2.356   1_545  S
C102        C682   1.475       .  S
C103        C651   1.487       .  S
C104        C641   1.417       .  S
C105        C643   1.413       .  S
H106        O107   0.967       .  S
O107       Zr126   2.378   1_645  S
O107       Zr128   2.337   1_545  S
H108        O109   0.966       .  S
O109       Zr127   2.384   1_545  S
O109       Zr129   2.357   1_545  S
O110       Zr126   2.485       .  S
O110        C133   1.298       .  A
O111       Zr127   2.483       .  S
O111        C134   1.294       .  A
O112       Zr128   2.529       .  S
O112        C135   1.310       .  A
O113       Zr129   2.534       .  S
O113        C136   1.311       .  A
O114       Zr129   2.532       .  S
O114        C137   1.307       .  A
O115       Zr128   2.516       .  S
O115        C138   1.306       .  A
O116       Zr130   2.472   1_655  S
O116        C139   1.297       .  A
O117       Zr130   2.416       .  S
O117        C140   1.281       .  A
O118       Zr128   2.347       .  S
O118        C139   1.274       .  A
O119       Zr129   2.410       .  S
O119        C140   1.280       .  A
O120       Zr126   2.466   1_655  S
O120        C135   1.296       .  A
O121       Zr127   2.473   1_655  S
O121        C138   1.295       .  A
O122       Zr127   2.475       .  S
O122        C137   1.292       .  A
O123       Zr126   2.447       .  S
O123        C136   1.291       .  A
O124       Zr130   2.538       .  S
O124        C133   1.311       .  A
O125       Zr130   2.522       .  S
O125        C134   1.305       .  A
Zr126       O132   2.358   1_455  S
Zr126       O144   2.411       .  S
Zr127       O131   2.356       .  S
Zr127       O142   2.377   1_455  S
Zr128       O132   2.371       .  S
Zr128       O142   2.391       .  S
Zr129       O131   2.355       .  S
Zr129       O144   2.372       .  S
Zr130       O131   2.355       .  S
Zr130       O132   2.319   1_455  S
Zr130       O144   2.367       .  S
Zr130       O142   2.361   1_455  S
C133        C656   1.506       .  S
C134        C648   1.498       .  S
C135        C629   1.486       .  S
C136        C631   1.484       .  S
C137        C634   1.498       .  S
C138        C635   1.489       .  S
C139        C640   1.409       .  S
C140        C638   1.422       .  S
H141        O142   0.963       .  S
H143        O144   0.968       .  S
C145        C146   1.457       .  A
C145        C150   1.406       .  A
C145        C662   1.507       .  S
C146        C147   1.454       .  A
C146        H151   1.082       .  S
C147        C148   1.380       .  A
C147        C627   1.485       .  S
C148        C149   1.373       .  A
C148        H152   1.090       .  S
C149        C150   1.399       .  A
C149        C644   1.418       .  S
C150        H153   1.085       .  S
C154        C155   1.435       .  A
C154        C159   1.394       .  A
C154        C660   1.468       .  S
C155        C156   1.435       .  A
C155        H160   1.083       .  S
C156        C157   1.395       .  A
C156        C625   1.471       .  S
C157        C158   1.388       .  A
C157        H161   1.086       .  S
C158        C159   1.387       .  A
C158        C642   1.422       .  S
C159        H162   1.086       .  S
C163        C164   1.402       .  A
C163        C168   1.448       .  A
C163        C623   1.491       .  S
C164        C165   1.397       .  A
C164        H169   1.085       .  S
C165        C166   1.377       .  A
C165        C639   1.414       .  S
C166        C167   1.383       .  A
C166        H170   1.089       .  S
C167        C168   1.445       .  A
C167        C663   1.479       .  S
C168        H171   1.082       .  S
C172        C173   1.395       .  A
C172        C177   1.455       .  A
C172        C621   1.497       .  S
C173        C174   1.390       .  A
C173        H178   1.087       .  S
C174        C175   1.390       .  A
C174        C637   1.419       .  S
C175        C176   1.395       .  A
C175        H179   1.087       .  S
C176        C177   1.455       .  A
C176        C657   1.501       .  S
C177        H180   1.082       .  S
C181        C182   1.398       .  A
C181        C186   1.448       .  A
C181        C636   1.488       .  S
C182        C183   1.391       .  A
C182        H187   1.086       .  S
C183        C184   1.376       .  A
C183        C620   1.411   1_565  S
C184        C185   1.383       .  A
C184        H188   1.088       .  S
C185        C186   1.446       .  A
C185        C617   1.476       .  S
C186        H189   1.082       .  S
O190       Zr226   2.452       .  S
O190        C201   1.286       .  A
O191       Zr225   2.463       .  S
O191        C202   1.295       .  A
O192       Zr198   2.428       .  S
O192        C203   1.283       .  A
O193       Zr198   2.457       .  S
O193        C204   1.294       .  A
O194       Zr228   2.365       .  S
O194        C204   1.277       .  A
O195       Zr227   2.392       .  S
O195        C203   1.276       .  A
O196       Zr198   2.545   1_565  S
O196        C202   1.313       .  A
O197       Zr198   2.531       .  S
O197        C201   1.306       .  A
Zr198       O199   2.342   1_545  S
Zr198       O200   2.349       .  S
Zr198       O208   2.348       .  S
Zr198       O206   2.380   1_545  S
O199       Zr225   2.388       .  S
O199       Zr228   2.377   1_565  S
O200       Zr226   2.345       .  S
O200       Zr227   2.346       .  S
C201        C628   1.492       .  S
C202        C622   1.498       .  S
C203        C611   1.419       .  S
C204        C615   1.407       .  S
H205        O206   0.969       .  S
O206       Zr225   2.416       .  S
O206       Zr227   2.379   1_565  S
H207        O208   0.963       .  S
O208       Zr226   2.345       .  S
O208       Zr228   2.394       .  S
O209       Zr225   2.492       .  S
O209        C232   1.301       .  A
O210       Zr226   2.451       .  S
O210        C233   1.290       .  A
O211       Zr227   2.519   1_565  S
O211        C234   1.307       .  A
O212       Zr228   2.545   1_565  S
O212        C235   1.313       .  A
O213       Zr228   2.512       .  S
O213        C236   1.305       .  A
O214       Zr227   2.515       .  S
O214        C237   1.302       .  A
O215       Zr229   2.363       .  S
O215        C238   1.276       .  A
O216       Zr229   2.385       .  S
O216        C239   1.280       .  A
O217       Zr227   2.444       .  S
O217        C238   1.290       .  A
O218       Zr228   2.430       .  S
O218        C239   1.289       .  A
O219       Zr225   2.500       .  S
O219        C234   1.302       .  A
O220       Zr226   2.440       .  S
O220        C237   1.284       .  A
O221       Zr226   2.436       .  S
O221        C236   1.287       .  A
O222       Zr225   2.499       .  S
O222        C235   1.303       .  A
O223       Zr229   2.513   1_565  S
O223        C232   1.307       .  A
O224       Zr229   2.497       .  S
O224        C233   1.302       .  A
Zr225       O231   2.381       .  S
Zr225       O243   2.373       .  S
Zr226       O230   2.336       .  S
Zr226       O241   2.356       .  S
Zr227       O231   2.331   1_545  S
Zr227       O241   2.356       .  S
Zr228       O230   2.360       .  S
Zr228       O243   2.347   1_545  S
Zr229       O230   2.354       .  S
Zr229       O231   2.369   1_545  S
Zr229       O243   2.348   1_545  S
Zr229       O241   2.384       .  S
C232        C624   1.491       .  S
C233        C626   1.472       .  S
C234        C606   1.503       .  S
C235        C609   1.510       .  S
C236        C608   1.468       .  S
C237        C604   1.478       .  S
C238        C619   1.403       .  S
C239        C614   1.404       .  S
H240        O241   0.962       .  S
H242        O243   0.966       .  S
C244        C245   1.448       .  A
C244        C249   1.396   1_565  A
C244        C601   1.485       .  S
C245        C246   1.446       .  A
C245        H250   1.082       .  S
C246        C247   1.385   1_565  A
C246        C632   1.480       .  S
C247        C248   1.380       .  A
C247        H251   1.088       .  S
C248        C249   1.389       .  A
C248        C616   1.409       .  S
C249        H252   1.086       .  S
C253        C254   1.448       .  A
C253        C258   1.395       .  A
C253        C630   1.484       .  S
C254        C255   1.447       .  A
C254        H259   1.082       .  S
C255        C256   1.384       .  A
C255        C600   1.478       .  S
C256        C257   1.379   1_565  A
C256        H260   1.088   1_565  S
C257        C258   1.387   1_545  A
C257        C613   1.410       .  S
C258        H261   1.086   1_565  S
C262        C263   1.401       .  A
C262        C267   1.451   1_545  A
C262        C597   1.502   1_545  S
C263        C264   1.398       .  A
C263        H268   1.086       .  S
C264        C265   1.387       .  A
C264        C612   1.420       .  S
C265        C266   1.391       .  A
C265        H269   1.088       .  S
C266        C267   1.450   1_545  A
C266        C633   1.495   1_545  S
C267        H270   1.082       .  S
O271       Zr307   2.454   1_554  S
O271        C282   1.292       .  A
O272       Zr306   2.477       .  S
O272        C283   1.298       .  A
O273       Zr279   2.433   1_545  S
O273        C284   1.289       .  A
O274       Zr279   2.410       .  S
O274        C285   1.286       .  A
O275       Zr309   2.446   1_554  S
O275        C285   1.292       .  A
O276       Zr308   2.387   1_554  S
O276        C284   1.281       .  A
O277       Zr279   2.542       .  S
O277        C283   1.313       .  A
O278       Zr279   2.526       .  S
O278        C282   1.309       .  A
Zr279       O280   2.367       .  S
Zr279       O281   2.348   1_565  S
Zr279       O289   2.347       .  S
Zr279       O287   2.354   1_565  S
O280       Zr306   2.375       .  S
O280       Zr309   2.371   1_554  S
O281       Zr307   2.351   1_544  S
O281       Zr308   2.346   1_554  S
C282        C618   1.482       .  S
C283        C598   1.501       .  S
C284        C595   1.409       .  S
C285        C593   1.417       .  S
H286        O287   0.965       .  S
O287       Zr306   2.367   1_545  S
O287       Zr308   2.353   1_554  S
H288        O289   0.966       .  S
O289       Zr307   2.325   1_554  S
O289       Zr309   2.348   1_554  S
O290       Zr306   2.484   1_556  S
O290        C313   1.300       .  A
O291       Zr307   2.430       .  S
O291        C314   1.287       .  A
O292       Zr308   2.512   1_554  S
O292        C315   1.305       .  A
O293       Zr309   2.545   1_554  S
O293        C316   1.314       .  A
O294       Zr309   2.520       .  S
O294        C317   1.308       .  A
O295       Zr308   2.507       .  S
O295        C318   1.304       .  A
O296       Zr310   2.449   1_545  S
O296        C319   1.293       .  A
O297       Zr310   2.383       .  S
O297        C320   1.282       .  A
O298       Zr308   2.396       .  S
O298        C319   1.282       .  A
O299       Zr309   2.465       .  S
O299        C320   1.295       .  A
O300       Zr306   2.515   1_545  S
O300        C315   1.306       .  A
O301       Zr307   2.452   1_545  S
O301        C318   1.292       .  A
O302       Zr307   2.477       .  S
O302        C317   1.296       .  A
O303       Zr306   2.480       .  S
O303        C316   1.298       .  A
O304       Zr310   2.517       .  S
O304        C313   1.307       .  A
O305       Zr310   2.546       .  S
O305        C314   1.313       .  A
Zr306       O312   2.362   1_564  S
Zr306       O324   2.387   1_554  S
Zr307       O311   2.337       .  S
Zr307       O322   2.373   1_565  S
Zr308       O312   2.347       .  S
Zr308       O322   2.357       .  S
Zr309       O311   2.345       .  S
Zr309       O324   2.372       .  S
Zr310       O311   2.343       .  S
Zr310       O312   2.348   1_565  S
Zr310       O324   2.383       .  S
Zr310       O322   2.355   1_565  S
C313        C602   1.488       .  S
C314        C599   1.482       .  S
C315        C587   1.504       .  S
C316        C583   1.501       .  S
C317        C586   1.489       .  S
C318        C581   1.474       .  S
C319        C589   1.419       .  S
C320        C592   1.420       .  S
H321        O322   0.968       .  S
H323        O324   0.965       .  S
C325        C326   1.444       .  A
C325        C330   1.399       .  A
C325        C579   1.485       .  S
C326        C327   1.442       .  A
C326        H331   1.082       .  S
C327        C328   1.387       .  A
C327        C603   1.474       .  S
C328        C329   1.380       .  A
C328        H332   1.088       .  S
C329        C330   1.393       .  A
C329        C596   1.416       .  S
C330        H333   1.085       .  S
C334        C335   1.399       .  A
C334        C339   1.453       .  A
C334        C605   1.502       .  S
C335        C336   1.396       .  A
C335        H340   1.086       .  S
C336        C337   1.386       .  A
C336        C594   1.416       .  S
C337        C338   1.390       .  A
C337        H341   1.088       .  S
C338        C339   1.452       .  A
C338        C577   1.495       .  S
C339        H342   1.082       .  S
C343        C344   1.399       .  A
C343        C348   1.460       .  A
C343        C610   1.509       .  S
C344        C345   1.395       .  A
C344        H349   1.086       .  S
C345        C346   1.386       .  A
C345        C591   1.419       .  S
C346        C347   1.392       .  A
C346        H350   1.088       .  S
C347        C348   1.459       .  A
C347        C576   1.505       .  S
C348        H351   1.082       .  S
C352        C353   1.437       .  A
C352        C357   1.403       .  A
C352        C573   1.479       .  S
C353        C354   1.435       .  A
C353        H358   1.083       .  S
C354        C355   1.388       .  A
C354        C607   1.464       .  S
C355        C356   1.380       .  A
C355        H359   1.088       .  S
C356        C357   1.396       .  A
C356        C590   1.425       .  S
C357        H360   1.085       .  S
O361       Zr397   2.408   1_554  S
O361        C372   1.278       .  A
O362       Zr396   2.485   1_554  S
O362        C373   1.299       .  A
O363       Zr369   2.392       .  S
O363        C374   1.276       .  A
O364       Zr369   2.441   1_655  S
O364        C375   1.290       .  A
O365       Zr399   2.360   1_554  S
O365        C375   1.274       .  A
O366       Zr398   2.428       .  S
O366        C374   1.282       .  A
O367       Zr369   2.534       .  S
O367        C373   1.310       .  A
O368       Zr369   2.518       .  S
O368        C372   1.303       .  A
Zr369       O370   2.333   1_455  S
Zr369       O371   2.346       .  S
Zr369       O379   2.352   1_455  S
Zr369       O377   2.364       .  S
O370       Zr396   2.384   1_654  S
O370       Zr399   2.363   1_554  S
O371       Zr397   2.349   1_554  S
O371       Zr398   2.344       .  S
C372        C679   1.465       .  S
C373        C645   1.502       .  S
C374        C570   1.420       .  S
C375        C571   1.401       .  S
H376        O377   0.966       .  S
O377       Zr396   2.418   1_554  S
O377       Zr398   2.367       .  S
H378        O379   0.966       .  S
O379       Zr397   2.360   1_654  S
O379       Zr399   2.378   1_554  S
O380       Zr396   2.517       .  S
O380        C403   1.307       .  A
O381       Zr397   2.437       .  S
O381        C404   1.287       .  A
O382       Zr398   2.540       .  S
O382        C405   1.312       .  A
O383       Zr399   2.514       .  S
O383        C406   1.306       .  A
O384       Zr399   2.503       .  S
O384        C407   1.302       .  A
O385       Zr398   2.516       .  S
O385        C408   1.303       .  A
O386       Zr400   2.387       .  S
O386        C409   1.281       .  A
O387       Zr400   2.431   1_655  S
O387        C410   1.289       .  A
O388       Zr398   2.452   1_556  S
O388        C409   1.293       .  A
O389       Zr399   2.368       .  S
O389        C410   1.278       .  A
O390       Zr396   2.465   1_554  S
O390        C405   1.296       .  A
O391       Zr397   2.462   1_554  S
O391        C408   1.288       .  A
O392       Zr397   2.456   1_655  S
O392        C407   1.291       .  A
O393       Zr396   2.506   1_655  S
O393        C406   1.304       .  A
O394       Zr400   2.534       .  S
O394        C403   1.312       .  A
O395       Zr400   2.519       .  S
O395        C404   1.306       .  A
Zr396       O402   2.397       .  S
Zr396       O414   2.364   1_455  S
Zr397       O401   2.329   1_455  S
Zr397       O412   2.338       .  S
Zr398       O402   2.354   1_554  S
Zr398       O412   2.358   1_554  S
Zr399       O401   2.363       .  S
Zr399       O414   2.348       .  S
Zr400       O401   2.363   1_455  S
Zr400       O402   2.388       .  S
Zr400       O414   2.353   1_455  S
Zr400       O412   2.387       .  S
C403        C654   1.513       .  S
C404        C650   1.474       .  S
C405        C562   1.494       .  S
C406        C558   1.500       .  S
C407        C560   1.477       .  S
C408        C563   1.489       .  S
C409        C567   1.413       .  S
C410        C566   1.398       .  S
H411        O412   0.964       .  S
H413        O414   0.965       .  S
C415        C416   1.399       .  A
C415        C420   1.452       .  A
C415        C555   1.493       .  S
C416        C417   1.391       .  A
C416        H421   1.086       .  S
C417        C418   1.376       .  A
C417        C572   1.409       .  S
C418        C419   1.381       .  A
C418        H422   1.089       .  S
C419        C420   1.450       .  A
C419        C668   1.482       .  S
C420        H423   1.082       .  S
C424        C425   1.400       .  A
C424        C429   1.449       .  A
C424        C666   1.499       .  S
C425        C426   1.396       .  A
C425        H430   1.086       .  S
C426        C427   1.388       .  A
C426        C569   1.420       .  S
C427        C428   1.391       .  A
C427        H431   1.088       .  S
C428        C429   1.448       .  A
C428        C553   1.491       .  S
C429        H432   1.082       .  S
C433        C434   1.400       .  A
C433        C438   1.452       .  A
C433        C669   1.498       .  S
C434        C435   1.395       .  A
C434        H439   1.086       .  S
C435        C436   1.380       .  A
C435        C568   1.415       .  S
C436        C437   1.386       .  A
C436        H440   1.089       .  S
C437        C438   1.450       .  A
C437        C551   1.486       .  S
C438        H441   1.082       .  S
C442        C443   1.395       .  A
C442        C447   1.441       .  A
C442        C550   1.476       .  S
C443        C444   1.388       .  A
C443        H448   1.086       .  S
C444        C445   1.378       .  A
C444        C565   1.406       .  S
C445        C446   1.384       .  A
C445        H449   1.088       .  S
C446        C447   1.440       .  A
C446        C672   1.469       .  S
C447        H450   1.082       .  S
C451        C452   1.452   1_556  A
C451        C456   1.406       .  A
C451        C588   1.504   1_556  S
C452        C453   1.449   1_554  A
C452        H457   1.082       .  S
C453        C454   1.382       .  A
C453        C564   1.483   1_556  S
C454        C455   1.376       .  A
C454        H458   1.089       .  S
C455        C456   1.401       .  A
C455        C547   1.418       .  S
C456        H459   1.085       .  S
O460       Zr496   2.484       .  S
O460        C471   1.299       .  A
O461       Zr495   2.483       .  S
O461        C472   1.298       .  A
O462       Zr468   2.356       .  S
O462        C473   1.274       .  A
O463       Zr468   2.419       .  S
O463        C474   1.286       .  A
O464       Zr498   2.414       .  S
O464        C474   1.285       .  A
O465       Zr497   2.469       .  S
O465        C473   1.295       .  A
O466       Zr468   2.488       .  S
O466        C472   1.300       .  A
O467       Zr468   2.510   1_554  S
O467        C471   1.306       .  A
Zr468       O469   2.358       .  S
Zr468       O470   2.380   1_556  S
Zr468       O478   2.335   1_556  S
Zr468       O476   2.384       .  S
O469       Zr495   2.350       .  S
O469       Zr498   2.351       .  S
O470       Zr496   2.391       .  S
O470       Zr497   2.334   1_554  S
C471        C580   1.486       .  S
C472        C574   1.479       .  S
C473        C548   1.412       .  S
C474        C542   1.415       .  S
H475        O476   0.965       .  S
O476       Zr495   2.353       .  S
O476       Zr497   2.347       .  S
H477        O478   0.965       .  S
O478       Zr496   2.373       .  S
O478       Zr498   2.340   1_554  S
O479       Zr495   2.485       .  S
O479        C502   1.294       .  A
O480       Zr496   2.494       .  S
O480        C503   1.300       .  A
O481       Zr497   2.512       .  S
O481        C504   1.303       .  A
O482       Zr498   2.510       .  S
O482        C505   1.305       .  A
O483       Zr498   2.523   1_554  S
O483        C506   1.308       .  A
O484       Zr497   2.546   1_554  S
O484        C507   1.313       .  A
O485       Zr499   2.417       .  S
O485        C508   1.281       .  A
O486       Zr499   2.475   1_554  S
O486        C509   1.297       .  A
O487       Zr497   2.397       .  S
O487        C508   1.277       .  A
O488       Zr498   2.352   1_554  S
O488        C509   1.275       .  A
O489       Zr495   2.476       .  S
O489        C504   1.292       .  A
O490       Zr496   2.452       .  S
O490        C507   1.292       .  A
O491       Zr496   2.491       .  S
O491        C506   1.301       .  A
O492       Zr495   2.448       .  S
O492        C505   1.290       .  A
O493       Zr499   2.537       .  S
O493        C502   1.308       .  A
O494       Zr499   2.519   1_554  S
O494        C503   1.307       .  A
Zr495       O501   2.351       .  S
Zr495       O513   2.379       .  S
Zr496       O500   2.362       .  S
Zr496       O511   2.413       .  S
Zr497       O501   2.359       .  S
Zr497       O511   2.373   1_556  S
Zr498       O500   2.364   1_556  S
Zr498       O513   2.395       .  S
Zr499       O500   2.323   1_556  S
Zr499       O501   2.351       .  S
Zr499       O513   2.362       .  S
Zr499       O511   2.382   1_556  S
C502        C575   1.508       .  S
C503        C578   1.498       .  S
C504        C552   1.490       .  S
C505        C549   1.476       .  S
C506        C556   1.495       .  S
C507        C554   1.493       .  S
C508        C543   1.418       .  S
C509        C545   1.414       .  S
H510        O511   0.969       .  S
H512        O513   0.970       .  S
C514        C515   1.450       .  A
C514        C519   1.405       .  A
C514        C557   1.500       .  S
C515        C516   1.447       .  A
C515        H520   1.082   1_554  S
C516        C517   1.383       .  A
C516        C585   1.485   1_554  S
C517        C518   1.379       .  A
C517        H521   1.089       .  S
C518        C519   1.400       .  A
C518        C546   1.418       .  S
C519        H522   1.085       .  S
C523        C524   1.453   1_556  A
C523        C528   1.394       .  A
C523        C561   1.492   1_556  S
C524        C525   1.454   1_554  A
C524        H529   1.082       .  S
C525        C526   1.392       .  A
C525        C584   1.496   1_556  S
C526        C527   1.386       .  A
C526        H530   1.087       .  S
C527        C528   1.389       .  A
C527        C544   1.415       .  S
C528        H531   1.087       .  S
C532        C533   1.438       .  A
C532        C537   1.393       .  A
C532        C582   1.473       .  S
C533        C534   1.438       .  A
C533        H538   1.082       .  S
C534        C535   1.395       .  A
C534        C559   1.475       .  S
C535        C536   1.389       .  A
C535        H539   1.086       .  S
C536        C537   1.387       .  A
C536        C541   1.421       .  S
C537        H540   1.086       .  S
C541        C542   1.194       .  T
C543        C544   1.193       .  T
C545        C546   1.195       .  T
C547        C548   1.194       .  T
C549        C550   1.230       .  T
C551        C552   1.239       .  T
C553        C554   1.240       .  T
C555        C556   1.241       .  T
C557        C558   1.244   1_554  T
C559        C560   1.230       .  T
C561        C562   1.241       .  T
C563        C564   1.238       .  T
C565        C566   1.185       .  T
C567        C568   1.193       .  T
C569        C570   1.195       .  T
C571        C572   1.188       .  T
C573        C574   1.232       .  T
C575        C576   1.249       .  T
C577        C578   1.243       .  T
C579        C580   1.236       .  T
C581        C582   1.229       .  T
C583        C584   1.245       .  T
C585        C586   1.238       .  T
C587        C588   1.246       .  T
C589        C590   1.197       .  T
C591        C592   1.198       .  T
C593        C594   1.194       .  T
C595        C596   1.191       .  T
C597        C598   1.245       .  T
C599        C600   1.234       .  T
C601        C602   1.237       .  T
C603        C604   1.231       .  T
C605        C606   1.246       .  T
C607        C608   1.225       .  T
C609        C610   1.250       .  T
C611        C612   1.195       .  T
C613        C614   1.188       .  T
C615        C616   1.189       .  T
C617        C618   1.234       .  T
C619        C620   1.188       .  T
C621        C622   1.244       .  T
C623        C624   1.239       .  T
C625        C626   1.227       .  T
C627        C628   1.240       .  T
C629        C630   1.236       .  T
C631        C632   1.236       .  T
C633        C634   1.243       .  T
C635        C636   1.238       .  T
C637        C638   1.197       .  T
C639        C640   1.193       .  T
C641        C642   1.195       .  T
C643        C644   1.195       .  T
C645        C646   1.246       .  T
C647        C648   1.243       .  T
C649        C650   1.229       .  T
C651        C652   1.236       .  T
C653        C654   1.252       .  T
C655        C656   1.248       .  T
C657        C658   1.247       .  T
C659        C660   1.226       .  T
C661        C662   1.249       .  T
C663        C664   1.236       .  T
C665        C666   1.244       .  T
C667        C668   1.237       .  T
C669        C670   1.244       .  T
C671        C672   1.229       .  T
C673        C674   1.195       .  T
C675        C676   1.194       .  T
C677        C678   1.194       .  T
C679        C680   1.224       .  T
C681        C682   1.229       .  T
C683        C684   1.184       .  T
