geometry optimzed in LAMMPS
_audit_creation_date              2020-11-30 
_audit_creation_method            'lammps2cif' 
_symmetry_space_group_name_H-M    'P1' 
_symmetry_Int_Tables_number       1 
_symmetry_cell_setting            triclinic 
loop_ 
_symmetry_equiv_pos_as_xyz 
  x,y,z 
_cell_length_a                    52.76704657 
_cell_length_b                    51.507609608974654 
_cell_length_c                    15.39291661417536 
_cell_angle_alpha                 84.28668334852885 
_cell_angle_beta                  96.42580610498659 
_cell_angle_gamma                 124.1191057210784 
loop_ 
_atom_site_label 
_atom_site_type_symbol 
_atom_site_fract_x 
_atom_site_fract_y 
_atom_site_fract_z 
_atom_site_charge 
N1          N  0.19301740  0.10627971  0.41900442    -0.01900
C2          C  0.17508531  0.11670270  0.43266009     0.00700
C3          C  0.14778479  0.09240814  0.46585133    -0.22200
C4          C  0.14874724  0.06639928  0.47423992    -0.22400
C5          C  0.17650709  0.07541777  0.44562791     0.00600
H6          H  0.13021255  0.09418167  0.48915010     0.14400
H7          H  0.13182273  0.04372426  0.50292411     0.14400
N8          N  0.07236809  0.20626571  0.68886176    -0.01900
C9          C  0.08543080  0.18979779  0.68411775     0.00700
C10         C  0.06338227  0.15915847  0.66230941    -0.22200
C11         C  0.03605469  0.15612500  0.65250340    -0.22400
C12         C  0.04190879  0.18496593  0.66801842     0.00600
H13         H  0.06710964  0.14140537  0.64822551     0.14400
H14         H  0.01417921  0.13532880  0.63261752     0.14400
N15         N  0.32064041  0.12656661  0.51025022    -0.01900
C16         C  0.30437827  0.10918413  0.58037799     0.00700
C17         C  0.32334062  0.12110532  0.65650681    -0.22200
C18         C  0.35188581  0.14470576  0.63216168    -0.22400
C19         C  0.34970723  0.14699703  0.54237596     0.00600
H20         H  0.31885927  0.11067499  0.72215651     0.14400
H21         H  0.37276255  0.15579492  0.67452433     0.14400
N22         N  0.32549092  0.24822440  0.39377987    -0.01900
C23         C  0.30992791  0.26166389  0.40211248     0.00700
C24         C  0.32935321  0.29400157  0.39308339    -0.22200
C25         C  0.35784124  0.30087589  0.38103715    -0.22400
C26         C  0.35497538  0.27256524  0.38233771     0.00600
H27         H  0.32417645  0.31086652  0.40503346     0.14400
H28         H  0.37892664  0.32401709  0.37995927     0.14400
N29         N  0.21186207  0.34385751  0.73653989    -0.01900
C30         C  0.22551958  0.32790655  0.74015632     0.00700
C31         C  0.25686032  0.34813591  0.75739064    -0.22200
C32         C  0.26288315  0.37750629  0.76203611    -0.22400
C33         C  0.23504620  0.37437269  0.74877650     0.00600
H34         H  0.27392278  0.34282687  0.75500435     0.14400
H35         H  0.28536253  0.39922998  0.76626433     0.14400
N36         N  0.09293838  0.33292886  0.56296137    -0.01900
C37         C  0.06834905  0.31322627  0.50985984     0.00700
C38         C  0.07530139  0.32180686  0.42355194    -0.22200
C39         C  0.10448702  0.34855919  0.42386306    -0.22400
C40         C  0.11455111  0.35567535  0.51064970     0.00600
H41         H  0.05930221  0.31264633  0.36666571     0.14400
H42         H  0.11485728  0.36370990  0.36682866     0.14400
O43         O  0.12490016  0.34209117  0.69076616    -0.80200
C44         C  0.08038995  0.24461107  0.95577471     0.99100
O45         O  0.06441223  0.24995043  0.89919607    -0.69300
O46         O  0.06749980  0.30295384  0.87228023    -0.72900
Al47       Al  0.07371267  0.27858920  0.79979723     1.49000
C48         C  0.08159408  0.33242558  0.87250460     0.94400
O49         O  0.15005684  0.34569588  0.93241058    -0.79100
O50         O  0.16235553  0.30085475  0.76673911    -0.72700
Al51       Al  0.13684418  0.34229454  0.81169634     1.90100
O52         O  0.16212353  0.31113345  0.94131760    -0.71800
O53         O  0.10954020  0.24591229  0.78168238    -0.71600
O54         O  0.10874088  0.25818245  0.94940577    -0.77300
O55         O  0.07177490  0.24951054  0.72470998    -0.75500
O56         O  0.11454271  0.30025441  0.82197587    -1.11600
O57         O  0.07597828  0.30353415  0.69505766    -0.70800
C58         C  0.09804290  0.32631367  0.65416808     0.99900
C59         C  0.16272731  0.33307430  0.97448408     0.96300
Al60       Al  0.13385704  0.28083575  0.85610594     1.55600
O61         O  0.10726556  0.34923306  0.84084924    -0.75400
C62         C  0.08561228  0.23570255  0.73134502     1.00500
C63         C  0.18077368  0.33017749  0.75831668     0.95300
O64         O  0.17338270  0.34777036  0.78044720    -0.80800
N65         N  0.32326037  0.10139116  0.18449661    -0.01900
C66         C  0.30843218  0.07019347  0.20692646     0.00700
C67         C  0.32867311  0.06283165  0.24498159    -0.22200
C68         C  0.35721942  0.08981236  0.24264585    -0.22400
C69         C  0.35369247  0.11295653  0.20216512     0.00600
H70         H  0.32363873  0.03952312  0.26136784     0.14400
H71         H  0.37845552  0.09108678  0.25639327     0.14400
N72         N  0.17531910  0.34148454  0.06373956    -0.01900
C73         C  0.17616056  0.31965353  0.11972385     0.00700
C74         C  0.16013771  0.31432333  0.19207071    -0.22200
C75         C  0.15201273  0.33544194  0.18395628    -0.22400
C76         C  0.16532838  0.35476195  0.11075948     0.00600
H77         H  0.15703196  0.29950164  0.24993511     0.14400
H78         H  0.14331402  0.34036913  0.23611800     0.14400
N79         N  0.32722131  0.23401808  0.06807605    -0.01900
C80         C  0.32044443  0.25571640  0.04204301     0.00700
C81         C  0.33974378  0.27697189  0.98021551    -0.22200
C82         C  0.35900054  0.26834752  0.96619914    -0.22400
C83         C  0.35082829  0.24188421  0.01949914     0.00600
H84         H  0.33931474  0.29632357  0.94735502     0.14400
H85         H  0.37679219  0.27978196  0.92032199     0.14400
N86         N  0.06715655  0.34718740  0.89865627    -0.01900
C87         C  0.03674518  0.33426619  0.87740024     0.00700
C88         C  0.03210395  0.35735214  0.84431446    -0.22200
C89         C  0.05977531  0.38548427  0.85234078    -0.22400
C90         C  0.08088252  0.37893853  0.88857157     0.00600
H91         H  0.01015555  0.35464817  0.83160732     0.14400
H92         H  0.06302351  0.40826399  0.84468875     0.14400
N93         N  0.20924138  0.11215867  0.05045991    -0.01900
C94         C  0.20215179  0.13006688  0.99597230     0.00700
C95         C  0.19172511  0.11783025  0.91404788    -0.22200
C96         C  0.19198825  0.09134567  0.91782269    -0.22400
C97         C  0.20260323  0.08810436  0.00187615     0.00600
H98         H  0.18241388  0.12573554  0.85968141     0.14400
H99         H  0.18315138  0.07481048  0.86652915     0.14400
N100        N  0.06615436  0.22202495  0.02711113    -0.01900
C101        C  0.07808543  0.20791767  0.07910500     0.00700
C102        C  0.05795159  0.18760521  0.14084576    -0.22200
C103        C  0.03269890  0.18908062  0.12656872    -0.22400
C104        C  0.03823705  0.21016757  0.05650819     0.00600
H105        H  0.06099392  0.17273400  0.18956229     0.14400
H106        H  0.01251513  0.17642112  0.16384620     0.14400
O107        O  0.32439274  0.19332913  0.16087298    -0.80200
C108        C  0.21989549  0.12125429  0.36896074     0.99100
O109        O  0.22854225  0.14639540  0.32483305    -0.69300
O110        O  0.28310238  0.19889439  0.35085422    -0.72900
Al111      Al  0.26222780  0.17313531  0.25229593     1.49000
C112        C  0.31187714  0.21769708  0.35917261     0.94400
O113        O  0.32460230  0.16000454  0.39160960    -0.79100
O114        O  0.28198282  0.10465531  0.20813222    -0.72700
Al115      Al  0.32246693  0.17548062  0.27696229     1.90100
O116        O  0.28460000  0.11096305  0.38761672    -0.71800
O117        O  0.23154983  0.10381871  0.18326914    -0.71600
O118        O  0.23305458  0.10742983  0.36371805    -0.77300
O119        O  0.23944226  0.15032275  0.15257819    -0.75500
O120        O  0.28130280  0.15282281  0.27139588    -1.11600
O121        O  0.29121752  0.20529599  0.17365080    -0.70800
C122        C  0.31340280  0.20944368  0.13588105     0.99900
C123        C  0.30926854  0.13247701  0.42595016     0.96300
Al124      Al  0.25975645  0.11073671  0.28448747     1.55600
O125        O  0.32875526  0.21161631  0.32624674    -0.75400
C126        C  0.22713834  0.12220460  0.13317825     1.00500
C127        C  0.31048259  0.11851634  0.20500758     0.95300
O128        O  0.32794011  0.14585747  0.23178001    -0.80800
C129        C  0.15019037  0.20932494  0.13389699    -0.26600
C130        C  0.15395472  0.20119201  0.05422244     0.07000
C131        C  0.13514556  0.19975924  0.98013123     0.26600
C132        C  0.11133292  0.20358944  0.98710615    -0.11100
C133        C  0.10661039  0.21010200  0.06769426    -0.25100
C134        C  0.12672323  0.21380571  0.14062648     0.37400
C135        C  0.17310134  0.18857883  0.05140119     0.07000
F136        F  0.13798032  0.19171904  0.90277855    -0.18800
H137        H  0.09555599  0.19972800  0.93068562     0.16800
F138        F  0.12251935  0.21999998  0.21949905    -0.22600
H139        H  0.16439589  0.21056819  0.19197175     0.18600
C140        C  0.16843935  0.16376091  0.11000189     0.26600
C141        C  0.18090472  0.14684094  0.09672895    -0.11100
C142        C  0.19758456  0.15380335  0.02347138    -0.25100
C143        C  0.20374155  0.17969502  0.96733439     0.37500
C144        C  0.19168412  0.19698682  0.98160532    -0.26700
F145        F  0.14840257  0.15311829  0.17296142    -0.18900
H146        H  0.17493871  0.12633285  0.13902647     0.16800
F147        F  0.21940223  0.18672860  0.89505887    -0.22600
H148        H  0.19504505  0.21554688  0.93451458     0.18600
C149        C  0.14683742  0.45938564  0.95768158    -0.26600
C150        C  0.15097250  0.45430084  0.04809542     0.07000
C151        C  0.13579488  0.42285884  0.08177614     0.26600
C152        C  0.11557008  0.39768458  0.02706062    -0.11100
C153        C  0.10949768  0.40330145  0.93827773    -0.25100
C154        C  0.12642450  0.43445381  0.90386267     0.37400
C155        C  0.16693762  0.48192381  0.10606234     0.07000
F156        F  0.13977663  0.41644811  0.16797896    -0.18800
H157        H  0.10286433  0.37401992  0.05575697     0.16800
F158        F  0.12109305  0.44122393  0.81930076    -0.22600
H159        H  0.15739001  0.48300853  0.92916900     0.18600
C160        C  0.19847342  0.01555469  0.97316156     0.26600
C161        C  0.21244834  0.04762790  0.98357022    -0.11100
C162        C  0.19915509  0.05815964  0.03220655    -0.25100
C163        C  0.17396309  0.03588761  0.08053149     0.37500
C164        C  0.16025326  0.00365628  0.07159083    -0.26700
F165        F  0.20836518  0.51386302  0.01181609    -0.18900
H166        H  0.23150733  0.06434644  0.94455506     0.16800
F167        F  0.15968045  0.04509371  0.12502117    -0.22600
H168        H  0.13291596  0.45869475  0.20231333     0.18600
C169        C  0.47511874  0.26309425  0.01353232    -0.26600
C170        C  0.45064601  0.24026865  0.95969651     0.07000
C171        C  0.45744528  0.23705098  0.87634481     0.26600
C172        C  0.48540480  0.26037489  0.84172023    -0.11100
C173        C  0.01246320  0.30839919  0.93041037    -0.25100
C174        C  0.01222490  0.31383767  0.01773502     0.37400
C175        C  0.41824549  0.22646140  0.98181797     0.07000
F176        F  0.43643945  0.21289301  0.82551806    -0.18800
H177        H  0.48857176  0.26012534  0.77352066     0.16800
F178        F  0.03755523  0.33820378  0.05855219    -0.22600
H179        H  0.47176802  0.26698517  0.07766775     0.18600
C180        C  0.41073616  0.22464014  0.06884662     0.26600
C181        C  0.38555651  0.22548743  0.08456268    -0.11100
C182        C  0.36607500  0.22530163  0.01454281    -0.25100
C183        C  0.36968731  0.21991029  0.93055835     0.37500
C184        C  0.39592792  0.22154026  0.91394917    -0.26700
F185        F  0.42882664  0.22447421  0.13852688    -0.18900
H186        H  0.38323035  0.22943809  0.15016705     0.16800
F187        F  0.35060544  0.21868908  0.86163010    -0.22600
H188        H  0.39990065  0.22255214  0.84606260     0.18600
C189        C  0.21839395  0.27807771  0.16714750    -0.26600
C190        C  0.23791420  0.29017478  0.09876182     0.07000
C191        C  0.23751227  0.31223407  0.03800408     0.26600
C192        C  0.21757414  0.32160422  0.04562095    -0.11100
C193        C  0.19680701  0.30853623  0.11221878    -0.25100
C194        C  0.19806039  0.28689642  0.17412517     0.37400
C195        C  0.25750072  0.27851480  0.08923557     0.07000
F196        F  0.25691627  0.32529453  0.97241130    -0.18800
H197        H  0.21879231  0.33947046  0.99941323     0.16800
F198        F  0.17997184  0.27390024  0.24229882    -0.22600
H199        H  0.21839269  0.26107339  0.21463897     0.18600
C200        C  0.27790014  0.27936892  0.15811174     0.26600
C201        C  0.29650211  0.26862636  0.14639996    -0.11100
C202        C  0.29484491  0.25687298  0.06607693    -0.25100
C203        C  0.27376105  0.25516965  0.99862570     0.37500
C204        C  0.25552559  0.26608061  0.01017405    -0.26700
F205        F  0.28145346  0.29276407  0.23394838    -0.18900
H206        H  0.31361120  0.27145484  0.19763579     0.16800
F207        F  0.27255429  0.24511974  0.91906212    -0.22600
H208        H  0.24020474  0.26544689  0.95649418     0.18600
C209        C  0.48548506  0.19834563  0.00738975    -0.26600
C210        C  0.45422035  0.17591868  0.98383644     0.07000
C211        C  0.44727668  0.15954537  0.90707147     0.26600
C212        C  0.47068530  0.16380804  0.86039931    -0.11100
C213        C  0.01696901  0.21971736  0.02876259    -0.25100
C214        C  0.01738232  0.24066940  0.08130306     0.37400
C215        C  0.42930673  0.16744590  0.04254828     0.07000
F216        F  0.41797148  0.13701693  0.88091686    -0.18800
H217        H  0.46429758  0.14964680  0.80438230     0.16800
F218        F  0.04363071  0.26164658  0.12738904    -0.22600
H219        H  0.49195509  0.21265460  0.06298072     0.18600
C220        C  0.43411280  0.16616496  0.13466662     0.26600
C221        C  0.40942771  0.15268811  0.18785780    -0.11100
C222        C  0.37917014  0.13899245  0.15137242    -0.25100
C223        C  0.37461119  0.14321714  0.06072791     0.37500
C224        C  0.39942333  0.15741188  0.00734364    -0.26700
F225        F  0.46193838  0.17481088  0.17386690    -0.18900
H226        H  0.41361150  0.14990471  0.25765048     0.16800
F227        F  0.34589539  0.13086633  0.02241801    -0.22600
H228        H  0.39488213  0.15957637  0.93760601     0.18600
C229        C  0.23344815  0.49917433  0.24515521    -0.26600
C230        C  0.23683649  0.48905713  0.16798704     0.07000
C231        C  0.25886802  0.00451845  0.05947950     0.26600
C232        C  0.27984425  0.03561120  0.08343552    -0.11100
C233        C  0.27910539  0.04515502  0.16507307    -0.25100
C234        C  0.25484557  0.02426196  0.21763383     0.37400
C235        C  0.21810334  0.45495556  0.15048161     0.07000
F236        F  0.26212223  0.99510219  0.98458205    -0.18800
H237        H  0.29876028  0.05125200  0.04279102     0.16800
F238        F  0.25322214  0.03316510  0.29567988    -0.22600
H239        H  0.21431180  0.48329831  0.28480300     0.18600
C240        C  0.21289108  0.43298032  0.21986064     0.26600
C241        C  0.19604491  0.40112306  0.20514156    -0.11100
C242        C  0.18342010  0.38959457  0.12099247    -0.25100
C243        C  0.18952478  0.41168474  0.05069044     0.37500
C244        C  0.20670061  0.44396057  0.06551808    -0.26700
F245        F  0.22517176  0.44221804  0.30223307    -0.18900
H246        H  0.19350690  0.38546815  0.26089248     0.16800
F247        F  0.17812656  0.40257441  0.96823788    -0.22600
H248        H  0.21025855  0.46023954  0.01057896     0.18600
C249        C  0.22352124  0.25896877  0.68422162    -0.26600
C250        C  0.22890264  0.26658549  0.59467327     0.07000
C251        C  0.22235948  0.28791743  0.55166351     0.26600
C252        C  0.21462640  0.30396593  0.59943136    -0.11100
C253        C  0.21426615  0.29985958  0.69076326    -0.25100
C254        C  0.21626935  0.27549573  0.73181228     0.37400
C255        C  0.24488226  0.25572761  0.54952814     0.07000
F256        F  0.22663450  0.29595647  0.46533589    -0.18800
H257        H  0.21330321  0.32282842  0.56661384     0.16800
F258        F  0.21472823  0.27029155  0.81965789    -0.22600
H259        H  0.22693995  0.24173005  0.71892482     0.18600
C260        C  0.27039218  0.25640932  0.59190997     0.26600
C261        C  0.28897373  0.25236142  0.54462320    -0.11100
C262        C  0.28302490  0.24821269  0.45421256    -0.25100
C263        C  0.25566506  0.24356136  0.41415276     0.37500
C264        C  0.23691854  0.24758937  0.46115514    -0.26700
F265        F  0.27960173  0.26456166  0.67641262    -0.18900
H266        H  0.31025258  0.25650161  0.57642380     0.16800
F267        F  0.24836807  0.23757379  0.32795889    -0.22600
H268        H  0.21675235  0.24545675  0.42738695     0.18600
C269        C  0.42523051  0.27964246  0.49708161    -0.26600
C270        C  0.44230615  0.28468320  0.42621756     0.07000
C271        C  0.42821270  0.28081698  0.34060683     0.26600
C272        C  0.39856517  0.27444005  0.32633715    -0.11100
C273        C  0.38223051  0.27099215  0.39711449    -0.25100
C274        C  0.39545830  0.27290062  0.48269806     0.37400
C275        C  0.47500293  0.29496462  0.44127833     0.07000
F276        F  0.44336398  0.28387379  0.27058470    -0.18800
H277        H  0.38879894  0.27337657  0.25996380     0.16800
F278        F  0.38019309  0.27006097  0.55215129    -0.22600
H279        H  0.43539997  0.28217915  0.56337847     0.18600
C280        C  0.49770109  0.32115372  0.39399650     0.26600
C281        C  0.52772673  0.32880143  0.40091693    -0.11100
C282        C  0.03638661  0.29724234  0.53329100    -0.25100
C283        C  0.51364027  0.28528150  0.50541436     0.37500
C284        C  0.48378093  0.27843368  0.50125596    -0.26700
F285        F  0.49087021  0.33947037  0.34120399    -0.18900
H286        H  0.04099555  0.34064847  0.55413037     0.16800
F287        F  0.51991888  0.26622157  0.55565947    -0.22600
H288        H  0.46707046  0.25902949  0.54158995     0.18600
C289        C  0.25015690  0.02780501  0.67179067    -0.26600
C290        C  0.25650036  0.49677713  0.68047941     0.07000
C291        C  0.25583307  0.51193889  0.59945455     0.26600
C292        C  0.27501788  0.05663438  0.51223983    -0.11100
C293        C  0.27876808  0.07530420  0.57955818    -0.25100
C294        C  0.26364637  0.05999820  0.65672640     0.37400
C295        C  0.24563973  0.46286202  0.68957491     0.07000
F296        F  0.24421912  0.49606595  0.52475538    -0.18800
H297        H  0.28660439  0.06713282  0.45253967     0.16800
F298        F  0.26419185  0.07649140  0.72126156    -0.22600
H299        H  0.27023485  0.50428722  0.81848979     0.18600
C300        C  0.25237774  0.44907322  0.62897624     0.26600
C301        C  0.24557063  0.41868679  0.64543987    -0.11100
C302        C  0.23343830  0.40192494  0.72409004    -0.25100
C303        C  0.22629763  0.41522576  0.78425391     0.37500
C304        C  0.23123315  0.44482680  0.76550806    -0.26700
F305        F  0.26834126  0.46575195  0.55829488    -0.18900
H306        H  0.25219597  0.40915902  0.59971251     0.16800
F307        F  0.21688311  0.40080198  0.86382404    -0.22600
H308        H  0.22540925  0.45440508  0.81332974     0.18600
C309        C  0.42484717  0.20277200  0.44287883    -0.26600
C310        C  0.43625449  0.18372058  0.44649600     0.07000
C311        C  0.41596039  0.15113635  0.46117369     0.26600
C312        C  0.38618798  0.13874248  0.48365117    -0.11100
C313        C  0.37662655  0.15875800  0.49286122    -0.25100
C314        C  0.39553247  0.19059204  0.46890487     0.37400
C315        C  0.46976976  0.19826861  0.44810489     0.07000
F316        F  0.42544100  0.13160530  0.45821317    -0.18800
H317        H  0.37144012  0.11389662  0.50075374     0.16800
F318        F  0.38636830  0.21005936  0.47662296    -0.22600
H319        H  0.43925798  0.22742073  0.42580574     0.18600
C320        C  0.48786514  0.22202632  0.38652860     0.26600
C321        C  0.99894893  0.18003075  0.57499339    -0.11100
C322        C  0.01677522  0.18976018  0.65451751    -0.25100
C323        C  0.51577642  0.20311191  0.52021620     0.37500
C324        C  0.48413780  0.18944088  0.51579344    -0.26700
F325        F  0.47492398  0.23112772  0.31997967    -0.18900
H326        H  0.00757151  0.17613355  0.52038598     0.16800
F327        F  0.52819517  0.19198785  0.58227936    -0.22600
H328        H  0.47073436  0.17163589  0.56519872     0.18600
C329        C  0.16796956  0.50069231  0.47807439    -0.26600
C330        C  0.17688631  0.48741068  0.54874650     0.07000
C331        C  0.18765364  0.01613908  0.56267948     0.26600
C332        C  0.19107705  0.04490375  0.54431792    -0.11100
C333        C  0.18704906  0.05418085  0.45809702    -0.25100
C334        C  0.18368997  0.03641041  0.38907082     0.37400
C335        C  0.16540869  0.45385123  0.54971787     0.07000
F336        F  0.18712535  0.00583148  0.64749840    -0.18800
H337        H  0.19322403  0.05820245  0.59819956     0.16800
F338        F  0.17877247  0.04445036  0.30531690    -0.22600
H339        H  0.15546936  0.48724280  0.42078129     0.18600
C340        C  0.14193388  0.43251200  0.60406704     0.26600
C341        C  0.12749679  0.40032459  0.59734126    -0.11100
C342        C  0.13618371  0.38871772  0.53599106    -0.25100
C343        C  0.16122397  0.41020529  0.48573486     0.37500
C344        C  0.17531729  0.44255904  0.49147475    -0.26700
F345        F  0.13085727  0.44283431  0.65720626    -0.18900
H346        H  0.10772960  0.38463991  0.63493518     0.16800
F347        F  0.17074104  0.39990326  0.42718260    -0.22600
H348        H  0.19303298  0.45868019  0.44795079     0.18600
C349        C  0.16000621  0.17735409  0.44921712    -0.26600
C350        C  0.17422888  0.18775915  0.53264573     0.07000
C351        C  0.19636299  0.18152067  0.56689371     0.26600
C352        C  0.20221361  0.16333827  0.52126205    -0.11100
C353        C  0.18454658  0.14917767  0.44419989    -0.25100
C354        C  0.16459937  0.15778174  0.40634978     0.37400
C355        C  0.16080411  0.19844029  0.58908187     0.07000
F356        F  0.21053766  0.19082931  0.64757692    -0.18800
H357        H  0.21700966  0.15635685  0.55316116     0.16800
F358        F  0.14494310  0.14217864  0.33748537    -0.19800
H359        H  0.14219845  0.18081545  0.42223614     0.18600
C360        C  0.15247967  0.21952659  0.55709029     0.26600
C361        C  0.13199161  0.22197608  0.60109938    -0.11100
C362        C  0.11790788  0.20189282  0.67389936    -0.25100
C363        C  0.12829070  0.18285270  0.70947548     0.37500
C364        C  0.15013569  0.18197843  0.66905168    -0.26700
F365        F  0.16179433  0.23548419  0.47909769    -0.18900
H366        H  0.12367491  0.23596133  0.57054035     0.16800
F367        F  0.11258383  0.16006860  0.77166212    -0.22600
H368        H  0.15518434  0.16480554  0.69383336     0.18600
N369        N  0.19490396  0.60053922  0.54773666    -0.01900
C370        C  0.18512774  0.61403128  0.59468949     0.00700
C371        C  0.16608782  0.59289833  0.65769754    -0.22200
C372        C  0.16408853  0.56563849  0.65079301    -0.22400
C373        C  0.18183521  0.57077647  0.58365980     0.00600
H374        H  0.15440896  0.59679607  0.70312185     0.14400
H375        H  0.15114088  0.54425266  0.69068148     0.14400
N376        N  0.08555673  0.74417234  0.56288040    -0.01900
C377        C  0.10547712  0.74252300  0.51824756     0.00700
C378        C  0.09459689  0.73602541  0.43169779    -0.22200
C379        C  0.06718545  0.73318673  0.42221352    -0.22400
C380        C  0.06185645  0.73796332  0.50301063     0.00600
H381        H  0.10431146  0.73123758  0.38213723     0.14400
H382        H  0.05175215  0.72628061  0.36383411     0.14400
N383        N  0.30988421  0.61552301  0.60810589    -0.01900
C384        C  0.28859717  0.59526326  0.66517256     0.00700
C385        C  0.29157072  0.61111908  0.73717539    -0.22200
C386        C  0.31826610  0.64023802  0.73040230    -0.22400
C387        C  0.33052320  0.64132338  0.65413627     0.00600
H388        H  0.27883737  0.60116750  0.79523833     0.14400
H389        H  0.33037323  0.65597095  0.78372147     0.14400
N390        N  0.32495684  0.73439467  0.53196351    -0.01900
C391        C  0.31424978  0.75057101  0.56040513     0.00700
C392        C  0.33713340  0.77614644  0.60660672    -0.22200
C393        C  0.36278019  0.77589306  0.60916005    -0.22400
C394        C  0.35500358  0.75025916  0.56415468     0.00600
H395        H  0.33489761  0.79253854  0.63836344     0.14400
H396        H  0.38487766  0.79252870  0.64126034     0.14400
N397        N  0.21186063  0.86249659  0.72896705    -0.01900
C398        C  0.22936987  0.85076085  0.75058790     0.00700
C399        C  0.25756320  0.87336185  0.78834367    -0.22200
C400        C  0.25786474  0.90011211  0.78786809    -0.22400
C401        C  0.22986120  0.89315713  0.74953216     0.00600
H402        H  0.27725362  0.87184005  0.80297644     0.14400
H403        H  0.27789455  0.92324702  0.80207778     0.14400
N404        N  0.08665127  0.84476458  0.54242271    -0.01900
C405        C  0.06375053  0.82519015  0.48372134     0.00700
C406        C  0.07629245  0.82868181  0.40539539    -0.22200
C407        C  0.10650430  0.85309458  0.41298190    -0.22400
C408        C  0.11204676  0.86350425  0.49664901     0.00600
H409        H  0.06362892  0.81860864  0.34413634     0.14400
H410        H  0.12097001  0.86486064  0.35873599     0.14400
O411        O  0.11335729  0.85291628  0.68071903    -0.80200
C412        C  0.06873743  0.73541882  0.87247839     0.99100
O413        O  0.05819070  0.75230040  0.85778308    -0.69300
O414        O  0.05916890  0.80468631  0.82534799    -0.72900
Al415      Al  0.06833214  0.78177381  0.75843109     1.49000
C416        C  0.07484898  0.83115049  0.85908541     0.94400
O417        O  0.15158597  0.84547481  0.90113252    -0.79100
O418        O  0.16744296  0.81674509  0.77459903    -0.72700
Al419      Al  0.13084343  0.84626059  0.78989920     1.90100
O420        O  0.13845565  0.79639253  0.92286823    -0.71800
O421        O  0.11805945  0.77095576  0.68647051    -0.71600
O422        O  0.09410868  0.74481065  0.84451356    -0.77300
O423        O  0.06953144  0.75509671  0.68218824    -0.75500
O424        O  0.10890112  0.80429932  0.78480272    -1.11600
O425        O  0.07180573  0.80654140  0.65592529    -0.70800
C426        C  0.09018408  0.83464960  0.63137370     0.99900
C427        C  0.14988831  0.82348719  0.95133910     0.96300
Al428      Al  0.12778345  0.78409882  0.80500097     1.55600
O429        O  0.10341437  0.84784165  0.85503514    -0.75400
C430        C  0.09129836  0.75686780  0.64813976     1.00500
C431        C  0.17932501  0.84365074  0.73930754     0.95300
O432        O  0.16362777  0.85510059  0.72408986    -0.80800
N433        N  0.32196611  0.60501016  0.26257415    -0.01900
C434        C  0.31089142  0.57399265  0.27157284     0.00700
C435        C  0.33426024  0.56958593  0.29500669    -0.22200
C436        C  0.36083946  0.59880320  0.29911679    -0.22400
C437        C  0.35289591  0.62017674  0.27691830     0.00600
H438        H  0.33252342  0.54754928  0.29860977     0.14400
H439        H  0.38377238  0.60372987  0.30586736     0.14400
N440        N  0.15882330  0.82847918  0.04355954    -0.01900
C441        C  0.15405498  0.80449514  0.10048359     0.00700
C442        C  0.14456744  0.80682343  0.17785621    -0.22200
C443        C  0.14501534  0.83379821  0.16936342    -0.22400
C444        C  0.15616453  0.84817845  0.08877761     0.00600
H445        H  0.14184653  0.79331244  0.23861471     0.14400
H446        H  0.14348658  0.84480919  0.22313794     0.14400
N447        N  0.31326118  0.72851809  0.17350037    -0.01900
C448        C  0.29994792  0.74361106  0.13641437     0.00700
C449        C  0.32087608  0.77107829  0.09251829    -0.22200
C450        C  0.34789020  0.77309685  0.10122011    -0.22400
C451        C  0.34270507  0.74655778  0.14916108     0.00600
H452        H  0.31655969  0.78736818  0.05540268     0.14400
H453        H  0.36833404  0.79038017  0.06803774     0.14400
N454        N  0.05977170  0.84430879  0.89110572    -0.01900
C455        C  0.02881543  0.83016891  0.88353358     0.00700
C456        C  0.02169295  0.85241351  0.87076153    -0.22200
C457        C  0.04880429  0.88116269  0.87328233    -0.22400
C458        C  0.07174750  0.87573642  0.88703018     0.00600
H459        H  0.99912044  0.84813903  0.87055741     0.14400
H460        H  0.05146294  0.90358453  0.87338916     0.14400
N461        N  0.19042220  0.59251648  0.18372888    -0.01900
C462        C  0.17335776  0.60324230  0.14383398     0.00700
C463        C  0.14633478  0.57936539  0.10442680    -0.22200
C464        C  0.14648776  0.55299379  0.11827264    -0.22400
C465        C  0.17354531  0.56125782  0.16623582     0.00600
H466        H  0.12893083  0.58135229  0.06621917     0.14400
H467        H  0.12927518  0.53028017  0.09235008     0.14400
N468        N  0.05088369  0.70390351  0.91117469    -0.01900
C469        C  0.06145820  0.68481129  0.92422657     0.00700
C470        C  0.03762823  0.65383325  0.91563578    -0.22200
C471        C  0.01143863  0.65335068  0.89900477    -0.22400
C472        C  0.01976483  0.68412667  0.89854629     0.00600
H473        H  0.03885012  0.63351167  0.92905101     0.14400
H474        H  0.98842193  0.63232873  0.89819992     0.14400
O475        O  0.31990030  0.69874491  0.28763333    -0.80200
C476        C  0.21653925  0.61454190  0.48019301     0.99100
O477        O  0.23287263  0.64385923  0.46464474    -0.69300
O478        O  0.28405309  0.69993063  0.43271564    -0.72900
Al479      Al  0.25451336  0.66441831  0.36002285     1.49000
C480        C  0.30910687  0.70771891  0.47600708     0.94400
O481        O  0.31916863  0.64096170  0.46824435    -0.79100
O482        O  0.28220278  0.59916807  0.33322039    -0.72700
Al483      Al  0.31560348  0.66777055  0.37634772     1.90100
O484        O  0.27152774  0.60508696  0.49699546    -0.71800
O485        O  0.23273686  0.59825914  0.27013506    -0.71600
O486        O  0.21940502  0.59694684  0.43709163    -0.77300
O487        O  0.22116614  0.63259223  0.28367977    -0.75500
O488        O  0.27463976  0.64557909  0.37230001    -1.11600
O489        O  0.27343870  0.68782178  0.25553759    -0.70800
C490        C  0.30148804  0.70342504  0.24037719     0.99900
C491        C  0.29985108  0.62014761  0.51996612     0.96300
Al492      Al  0.25343818  0.60361279  0.38290761     1.55600
O493        O  0.32130771  0.69310803  0.46747394    -0.75400
C494        C  0.21636271  0.60890112  0.24685355     1.00500
C495        C  0.30565140  0.61718170  0.29103045     0.95300
O496        O  0.31694398  0.64616215  0.28541906    -0.80800
C497        C  0.11332620  0.67580954  0.09168917    -0.26600
C498        C  0.13882278  0.68528705  0.04454102     0.07000
C499        C  0.14115925  0.70120185  0.96192264     0.26600
C500        C  0.11708254  0.70386347  0.92471991    -0.11100
C501        C  0.09103625  0.69257805  0.97064638    -0.25100
C502        C  0.09028849  0.68008591  0.05643520     0.37400
C503        C  0.15960137  0.67428018  0.07651345     0.07000
F504        F  0.16584110  0.71294678  0.91445312    -0.18800
H505        H  0.11803823  0.71288725  0.85778093     0.16800
F506        F  0.06535376  0.66864112  0.10279314    -0.22600
H507        H  0.10949636  0.66265918  0.15347414     0.18600
C508        C  0.16404395  0.66753971  0.16663812     0.26600
C509        C  0.17466379  0.64820056  0.19225486    -0.11100
C510        C  0.18187019  0.63587321  0.12972748    -0.25100
C511        C  0.18296602  0.64713595  0.04239016     0.37500
C512        C  0.17113724  0.66528818  0.01577186    -0.26700
F513        F  0.15550646  0.67681570  0.23052713    -0.18900
H514        H  0.17350150  0.63971986  0.25987231     0.16800
F515        F  0.19011219  0.63570029  0.98028407    -0.22600
H516        H  0.16821816  0.66920222  0.94620002     0.18600
C517        C  0.14386597  0.95626080  0.89050555    -0.26600
C518        C  0.15066684  0.96058567  0.98112326     0.07000
C519        C  0.13503215  0.93418063  0.03893714     0.26600
C520        C  0.11144277  0.90487392  0.00667635    -0.11100
C521        C  0.10319549  0.90136083  0.91643647    -0.25100
C522        C  0.12038386  0.92706616  0.85853605     0.37400
C523        C  0.17108523  0.99318519  0.01310868     0.07000
F524        F  0.14193746  0.93693939  0.12656463    -0.18800
H525        H  0.09813197  0.88548321  0.05256593     0.16800
F526        F  0.11247473  0.92464210  0.77133298    -0.22600
H527        H  0.15514942  0.97608556  0.84422434     0.18600
C528        C  0.19248825  0.51144973  0.07910294     0.26600
C529        C  0.20013737  0.53913791  0.11590728    -0.11100
C530        C  0.18199721  0.53798502  0.17829305    -0.25100
C531        C  0.16013547  0.50834652  0.21550112     0.37500
C532        C  0.15267662  0.48070666  0.17962237    -0.26700
F533        F  0.21008705  0.00667771  0.91707675    -0.18900
H534        H  0.21710928  0.56153425  0.08591249     0.16800
F535        F  0.14131211  0.50608498  0.27331609    -0.22600
H536        H  0.13909581  0.98708730  0.10264893     0.18600
C537        C  0.47421170  0.78975681  0.06668906    -0.26600
C538        C  0.44720808  0.76346616  0.02998198     0.07000
C539        C  0.44919469  0.75337416  0.94990051     0.26600
C540        C  0.47617558  0.77092095  0.90515717    -0.11100
C541        C  0.00632426  0.79909518  0.92338917    -0.25100
C542        C  0.99666163  0.79842047  0.00535485     0.37400
C543        C  0.41706588  0.74921671  0.07073782     0.07000
F544        F  0.42510895  0.72695592  0.91316778    -0.18800
H545        H  0.47616338  0.76438602  0.84036135     0.16800
F546        F  0.01354578  0.82364344  0.05636342    -0.22600
H547        H  0.47410312  0.79938991  0.12571924     0.18600
C548        C  0.41544863  0.75079790  0.16135515     0.26600
C549        C  0.38870158  0.74510830  0.19293664    -0.11100
C550        C  0.36251222  0.73558942  0.13655362    -0.25100
C551        C  0.36234403  0.72838866  0.05088104     0.37500
C552        C  0.38953222  0.73656460  0.01738017    -0.26700
F553        F  0.43997128  0.75925511  0.21898629    -0.18900
H554        H  0.38927370  0.75066119  0.25941017     0.16800
F555        F  0.33714535  0.71882267  0.99495897    -0.22600
H556        H  0.38905671  0.73525081  0.94763525     0.18600
C557        C  0.17791033  0.74768403  0.15866382    -0.26600
C558        C  0.20252288  0.75946868  0.10612033     0.07000
C559        C  0.20875345  0.78396537  0.04391162     0.26600
C560        C  0.19168471  0.79732194  0.03857790    -0.11100
C561        C  0.16741973  0.78590475  0.09306003    -0.25100
C562        C  0.15972604  0.75971394  0.14987245     0.37400
C563        C  0.22234313  0.74713130  0.11869404     0.07000
F564        F  0.23280780  0.79663716  0.99294283    -0.18800
H565        H  0.19862876  0.81768483  0.99483475     0.16800
F566        F  0.13508320  0.74604036  0.19877978    -0.22600
H567        H  0.17282768  0.72928490  0.20759309     0.18600
C568        C  0.23560611  0.74552427  0.20212764     0.26600
C569        C  0.25831658  0.73909258  0.21063988    -0.11100
C570        C  0.26784181  0.73395176  0.13664444    -0.25100
C571        C  0.25191632  0.73172579  0.05514714     0.37500
C572        C  0.22982587  0.73885601  0.04610290    -0.26700
F573        F  0.22907663  0.75343682  0.27399997    -0.18900
H574        H  0.27065806  0.74130676  0.27330703     0.16800
F575        F  0.26039326  0.72635201  0.98235252    -0.22600
H576        H  0.21966851  0.73939407  0.98149618     0.18600
C577        C  0.48386099  0.73034352  0.11688684    -0.26600
C578        C  0.45468963  0.70482956  0.08818884     0.07000
C579        C  0.45287750  0.68786956  0.01847937     0.26600
C580        C  0.47956278  0.69245363  0.99131841    -0.11100
C581        C  0.99654074  0.69036183  0.91685836    -0.25100
C582        C  0.00138548  0.70789869  0.98865811     0.37400
C583        C  0.42759025  0.69211657  0.14116243     0.07000
F584        F  0.42549359  0.66367706  0.98543765    -0.18800
H585        H  0.47725868  0.67563856  0.94867175     0.16800
F586        F  0.03012930  0.72782699  0.02467788    -0.22600
H587        H  0.48608009  0.74493632  0.16706859     0.18600
C588        C  0.43076695  0.68884695  0.23323588     0.26600
C589        C  0.40497012  0.66887314  0.28087395    -0.11100
C590        C  0.37566656  0.65137319  0.23801021    -0.25100
C591        C  0.37194174  0.65800084  0.14852683     0.37500
C592        C  0.39774204  0.67812149  0.10059649    -0.26700
F593        F  0.45879697  0.70139713  0.27650995    -0.18900
H594        H  0.40827701  0.66406885  0.34985356     0.16800
F595        F  0.34387057  0.64172780  0.10496710    -0.22600
H596        H  0.39434431  0.68092433  0.03059945     0.18600
C597        C  0.23391649  0.99317639  0.19398644    -0.26600
C598        C  0.23679213  0.98266744  0.11708782     0.07000
C599        C  0.26086455  0.51105277  0.11533891     0.26600
C600        C  0.28295059  0.54096223  0.14529713    -0.11100
C601        C  0.28189642  0.54909575  0.22854046    -0.25100
C602        C  0.25626946  0.52858771  0.27672624     0.37400
C603        C  0.21871574  0.94856664  0.10245008     0.07000
F604        F  0.26492960  0.50288101  0.03948969    -0.18800
H605        H  0.30272419  0.55661836  0.10755562     0.16800
F606        F  0.25474799  0.53554457  0.35787035    -0.22600
H607        H  0.21655833  0.97678764  0.23827558     0.18600
C608        C  0.22115932  0.92808425  0.16459578     0.26600
C609        C  0.20202392  0.89570960  0.15554844    -0.11100
C610        C  0.17920481  0.88283485  0.08616505    -0.25100
C611        C  0.17785423  0.90350091  0.02190337     0.37500
C612        C  0.19815818  0.93607574  0.02876327    -0.26700
F613        F  0.24193266  0.93939047  0.23453265    -0.18900
H614        H  0.20423658  0.88051141  0.20520372     0.16800
F615        F  0.15578309  0.89268674  0.95592865    -0.22600
H616        H  0.19670905  0.95154609  0.97878511     0.18600
C617        C  0.21884366  0.77453393  0.70336953    -0.26600
C618        C  0.23753125  0.78429592  0.63225272     0.07000
C619        C  0.24888483  0.81466325  0.59375560     0.26600
C620        C  0.24279203  0.83459570  0.62772591    -0.11100
C621        C  0.22661273  0.82567935  0.70302967    -0.25100
C622        C  0.21410736  0.79524400  0.73996362     0.37400
C623        C  0.24798074  0.76469731  0.60468615     0.07000
F624        F  0.26849152  0.82667176  0.52888983    -0.18800
H625        H  0.25316309  0.85830115  0.59965699     0.16800
F626        F  0.19905822  0.78619085  0.81435200    -0.22600
H627        H  0.20891765  0.75133392  0.73369504     0.18600
C628        C  0.25546495  0.74755756  0.66713237     0.26600
C629        C  0.27094037  0.73475016  0.64341093    -0.11100
C630        C  0.28249434  0.74178767  0.56041517    -0.25100
C631        C  0.27262441  0.75599066  0.49589226     0.37500
C632        C  0.25463701  0.76630581  0.51720573    -0.26700
F633        F  0.25155012  0.74638907  0.75339236    -0.18900
H634        H  0.27897436  0.72453166  0.69483110     0.16800
F635        F  0.28474164  0.76481016  0.41676389    -0.22600
H636        H  0.24850209  0.77824244  0.46625141     0.18600
C637        C  0.42450404  0.74924124  0.62944448    -0.26600
C638        C  0.43793923  0.75685413  0.54929443     0.07000
C639        C  0.42049545  0.75551675  0.47148401     0.26600
C640        C  0.39117364  0.74954390  0.47483084    -0.11100
C641        C  0.37857385  0.74383054  0.55561703    -0.25100
C642        C  0.39498004  0.74233939  0.63257179     0.37400
C643        C  0.47060891  0.76776101  0.54838728     0.07000
F644        F  0.43278986  0.76252758  0.39299013    -0.18800
H645        H  0.37931418  0.75165281  0.41529196     0.16800
F646        F  0.38332986  0.73666103  0.71177580    -0.22600
H647        H  0.43720333  0.74934445  0.68990971     0.18600
C648        C  0.49343486  0.79308334  0.59867490     0.26600
C649        C  0.52437481  0.80459744  0.59400809    -0.11100
C650        C  0.03161599  0.81741170  0.48064126    -0.25100
C651        C  0.51021109  0.76456255  0.49325453     0.37500
C652        C  0.47936517  0.75372733  0.49561109    -0.26700
F653        F  0.48599271  0.80819699  0.64724745    -0.18900
H654        H  0.03748666  0.84629499  0.36192453     0.16800
F655        F  0.51773147  0.75029368  0.44165361    -0.22600
H656        H  0.46244376  0.73472635  0.45464355     0.18600
C657        C  0.26803131  0.51453958  0.75561240    -0.26600
C658        C  0.24827889  0.00930211  0.60688770     0.07000
C659        C  0.25877813  0.02393961  0.52423175     0.26600
C660        C  0.26596599  0.54367907  0.59486663    -0.11100
C661        C  0.27631232  0.56100773  0.67076941    -0.25100
C662        C  0.27765204  0.54593883  0.75137253     0.37400
C663        C  0.23821208  0.97601637  0.62965701     0.07000
F664        F  0.25469579  0.00698519  0.45590583    -0.18800
H665        H  0.26513673  0.55429235  0.53161481     0.16800
F666        F  0.28983662  0.56169310  0.82639872    -0.22600
H667        H  0.24208769  0.01769339  0.73595512     0.18600
C668        C  0.25356644  0.96368515  0.59957381     0.26600
C669        C  0.24770809  0.93478648  0.63286130    -0.11100
C670        C  0.22800158  0.91826013  0.70050384    -0.25100
C671        C  0.21202548  0.92979228  0.72957673     0.37500
C672        C  0.21628854  0.95782151  0.69222975    -0.26700
F673        F  0.27677939  0.98075092  0.54553802    -0.18900
H674        H  0.26083365  0.92660129  0.61128539     0.16800
F675        F  0.19445644  0.91560793  0.79881797    -0.22600
H676        H  0.20379059  0.96621616  0.71660285     0.18600
C677        C  0.41260152  0.68254967  0.59213338    -0.26600
C678        C  0.42572680  0.67347997  0.66248452     0.07000
C679        C  0.40719489  0.65407566  0.73076417     0.26600
C680        C  0.37655837  0.64438739  0.72785513    -0.11100
C681        C  0.36365269  0.65383855  0.65735782    -0.25100
C682        C  0.38213714  0.67315539  0.58974682     0.37400
C683        C  0.45790139  0.68258305  0.66183199     0.07000
F684        F  0.41798325  0.64288396  0.79790379    -0.18800
H685        H  0.36260738  0.62872171  0.77997459     0.16800
F686        F  0.37146500  0.68404404  0.52239292    -0.22600
H687        H  0.42587676  0.69717098  0.53853859     0.18600
C688        C  0.46921978  0.68121283  0.58484438     0.26600
C689        C  0.01816314  0.74268560  0.45468809    -0.11100
C690        C  0.03163533  0.73164608  0.51852760    -0.25100
C691        C  0.50405882  0.69141563  0.74419818     0.37500
C692        C  0.47657867  0.68967579  0.74028089    -0.26700
F693        F  0.45181002  0.67316520  0.50800965    -0.18900
H694        H  0.03177924  0.75991501  0.40453708     0.16800
F695        F  0.51839083  0.69186676  0.82332133    -0.22600
H696        H  0.46890073  0.69178057  0.79983757     0.18600
C697        C  0.18162923  0.00813481  0.40720290    -0.26600
C698        C  0.18151519  0.99679566  0.49428603     0.07000
C699        C  0.19167163  0.50439005  0.62446198     0.26600
C700        C  0.19705436  0.53395825  0.62982497    -0.11100
C701        C  0.18614503  0.54628829  0.56205312    -0.25100
C702        C  0.17187497  0.52966727  0.48533457     0.37400
C703        C  0.16878726  0.96299726  0.51239562     0.07000
F704        F  0.19876947  0.49133610  0.69572753    -0.18800
H705        H  0.20723111  0.54600682  0.69048676     0.16800
F706        F  0.15889775  0.53980066  0.42199455    -0.22600
H707        H  0.17666451  0.99351419  0.35347453     0.18600
C708        C  0.14303672  0.94476794  0.56237640     0.26600
C709        C  0.12679004  0.91216299  0.56507472    -0.11100
C710        C  0.13535861  0.89687273  0.51674382    -0.25100
C711        C  0.16279175  0.91510271  0.47331404     0.37500
C712        C  0.17906766  0.94791595  0.47022608    -0.26700
F713        F  0.13127221  0.95818885  0.60012730    -0.18900
H714        H  0.10566463  0.89896992  0.59817522     0.16800
F715        F  0.17281864  0.90131934  0.42923970    -0.22600
H716        H  0.19877860  0.96145980  0.43128887     0.18600
C717        C  0.17386252  0.67688168  0.49906661    -0.26600
C718        C  0.17641691  0.69106178  0.57621462     0.07000
C719        C  0.18776557  0.68346314  0.65449565     0.26600
C720        C  0.19543734  0.66159127  0.65589959    -0.11100
C721        C  0.19016949  0.64531040  0.58090595    -0.25100
C722        C  0.18024829  0.65381860  0.50150544     0.37400
C723        C  0.16391829  0.71071137  0.57607283     0.07000
F724        F  0.18975268  0.69568109  0.73095793    -0.18800
H725        H  0.20254872  0.65495096  0.71817415     0.16800
F726        F  0.17311220  0.63727900  0.42925072    -0.19800
H727        H  0.16437052  0.68163848  0.43830594     0.18600
C728        C  0.17040682  0.73405440  0.50997677     0.26600
C729        C  0.15451569  0.74859443  0.50156306    -0.11100
C730        C  0.13047013  0.73880281  0.55510920    -0.25100
C731        C  0.12565457  0.71738142  0.62588226     0.37500
C732        C  0.14254472  0.70374503  0.63663274    -0.26700
F733        F  0.19038498  0.74115017  0.44929379    -0.18900
H734        H  0.15858742  0.76499309  0.44641937     0.16800
F735        F  0.10208090  0.70645607  0.67746267    -0.22600
H736        H  0.13679681  0.68555104  0.68754144     0.18600
N737        N  0.68617056  0.08662345  0.46590036    -0.01900
C738        C  0.67075737  0.09722957  0.49804705     0.00700
C739        C  0.64474920  0.07277777  0.53628290    -0.22200
C740        C  0.64426758  0.04628633  0.52952280    -0.22400
C741        C  0.66996820  0.05539185  0.48731285     0.00600
H742        H  0.62852837  0.07435195  0.56882719     0.14400
H743        H  0.62818378  0.02323866  0.55806719     0.14400
N744        N  0.58656825  0.23892883  0.51546164    -0.01900
C745        C  0.60915968  0.24080759  0.47417158     0.00700
C746        C  0.60337786  0.24160018  0.38422010    -0.22200
C747        C  0.57625587  0.23914685  0.36885552    -0.22400
C748        C  0.56601605  0.23700769  0.44958991     0.00600
H749        H  0.61574304  0.24045662  0.33475185     0.14400
H750        H  0.56397565  0.23621927  0.30551881     0.14400
N751        N  0.80702195  0.10759535  0.57516394    -0.01900
C752        C  0.78474836  0.09043674  0.63224062     0.00700
C753        C  0.78906755  0.10926495  0.69823693    -0.22200
C754        C  0.81733468  0.13657306  0.68950568    -0.22400
C755        C  0.82896667  0.13393992  0.61711945     0.00600
H756        H  0.77581758  0.10229798  0.75482347     0.14400
H757        H  0.83011620  0.15347818  0.73978862     0.14400
N758        N  0.82024712  0.21239156  0.54585569    -0.01900
C759        C  0.80423818  0.21783171  0.59720714     0.00700
C760        C  0.82155298  0.23163535  0.67351232    -0.22200
C761        C  0.84886758  0.23517618  0.67054245    -0.22400
C762        C  0.84797834  0.22347968  0.59268593     0.00600
H763        H  0.81562728  0.24008577  0.72425634     0.14400
H764        H  0.86815483  0.24674540  0.71838955     0.14400
N765        N  0.71259114  0.35037703  0.67994296    -0.01900
C766        C  0.72847902  0.33654147  0.69299573     0.00700
C767        C  0.75823947  0.35781011  0.72453255    -0.22200
C768        C  0.76133648  0.38586780  0.72801533    -0.22400
C769        C  0.73338114  0.38113949  0.69856756     0.00600
H770        H  0.77677266  0.35428694  0.73314678     0.14400
H771        H  0.78274459  0.40822672  0.73987240     0.14400
N772        N  0.59101523  0.33662129  0.50381816    -0.01900
C773        C  0.56710474  0.31711353  0.44811752     0.00700
C774        C  0.57784617  0.32249755  0.36551332    -0.22200
C775        C  0.60786536  0.34783670  0.36961152    -0.22400
C776        C  0.61502608  0.35695786  0.45510665     0.00600
H777        H  0.56377467  0.31347303  0.30524746     0.14400
H778        H  0.62069377  0.36123545  0.31340388     0.14400
O779        O  0.62207126  0.34283841  0.63221981    -0.80200
C780        C  0.57191439  0.22764281  0.83396297     0.99100
O781        O  0.55782186  0.23846687  0.79079386    -0.69300
O782        O  0.56273709  0.29213489  0.81354944    -0.72900
Al783      Al  0.56993133  0.27562670  0.71841206     1.49000
C784        C  0.57505240  0.32123158  0.82099604     0.94400
O785        O  0.64289298  0.33482671  0.87257815    -0.79100
O786        O  0.66352797  0.30448976  0.69431716    -0.72700
Al787      Al  0.63188867  0.33783839  0.75266299     1.90100
O788        O  0.65124666  0.29740389  0.87220465    -0.71800
O789        O  0.61120496  0.25324020  0.65731491    -0.71600
O790        O  0.60055229  0.24301578  0.83549143    -0.77300
O791        O  0.57218504  0.25749708  0.62020530    -0.75500
O792        O  0.61046937  0.29626016  0.74539137    -1.11600
O793        O  0.57252203  0.30759500  0.63551742    -0.70800
C794        C  0.59524610  0.32919933  0.59494682     0.99900
C795        C  0.65205233  0.31849808  0.91202227     0.96300
Al796      Al  0.62970314  0.27636862  0.76338361     1.55600
O797        O  0.60014448  0.34072356  0.78782469    -0.75400
C798        C  0.58968879  0.24954320  0.60246409     1.00500
C799        C  0.68045230  0.33373072  0.69571907     0.95300
O800        O  0.67025765  0.34810231  0.72192350    -0.80800
N801        N  0.82782090  0.10111875  0.22427547    -0.01900
C802        C  0.81705582  0.07023683  0.22186978     0.00700
C803        C  0.84078022  0.06625063  0.22129321    -0.22200
C804        C  0.86722846  0.09554911  0.22333915    -0.22400
C805        C  0.85881250  0.11657610  0.22447044     0.00600
H806        H  0.83885073  0.04450542  0.21401815     0.14400
H807        H  0.89004121  0.10115008  0.21706871     0.14400
N808        N  0.66018386  0.32157363  0.00540670    -0.01900
C809        C  0.65495860  0.29601304  0.05638866     0.00700
C810        C  0.64157182  0.29383885  0.13128668    -0.22200
C811        C  0.64022828  0.31968271  0.12905623    -0.22400
C812        C  0.65392655  0.33787893  0.05456697     0.00600
H813        H  0.63729591  0.27791874  0.18761184     0.14400
H814        H  0.63508924  0.32718663  0.18403135     0.14400
N815        N  0.82641617  0.23530723  0.18424112    -0.01900
C816        C  0.81591055  0.25437069  0.17585383     0.00700
C817        C  0.83993256  0.28532503  0.16459146    -0.22200
C818        C  0.86596951  0.28547781  0.16489890    -0.22400
C819        C  0.85714556  0.25459918  0.17605840     0.00600
H820        H  0.83823257  0.30528491  0.14910438     0.14400
H821        H  0.88834038  0.30553122  0.14837949     0.14400
N822        N  0.55893433  0.33268465  0.85593875    -0.01900
C823        C  0.52790490  0.31670107  0.84898238     0.00700
C824        C  0.51878283  0.33736554  0.83880233    -0.22200
C825        C  0.54486860  0.36699833  0.84226895    -0.22400
C826        C  0.56923839  0.36368483  0.85416085     0.00600
H827        H  0.49566844  0.33141186  0.84150459     0.14400
H828        H  0.54583115  0.38838701  0.84666939     0.14400
N829        N  0.71854346  0.10847947  0.09413261    -0.01900
C830        C  0.72188229  0.13193982  0.03568081     0.00700
C831        C  0.72639359  0.12671591  0.95368867    -0.22200
C832        C  0.72463429  0.09931229  0.96000100    -0.22400
C833        C  0.71864407  0.08767921  0.04517538     0.00600
H834        H  0.72657337  0.13870622  0.89184521     0.14400
H835        H  0.72359150  0.08714467  0.90487742     0.14400
N836        N  0.55508329  0.19579087  0.87125717    -0.01900
C837        C  0.56512195  0.17634413  0.87095882     0.00700
C838        C  0.54059109  0.14612688  0.85413884    -0.22200
C839        C  0.51465965  0.14616159  0.84947378    -0.22400
C840        C  0.52380264  0.17654596  0.86242560     0.00600
H841        H  0.54120537  0.12541709  0.85596665     0.14400
H842        H  0.49149796  0.12537958  0.84707986     0.14400
O843        O  0.82754503  0.19517575  0.26657638    -0.80200
C844        C  0.71335671  0.10348213  0.41741210     0.99100
O845        O  0.72991797  0.13280381  0.41267526    -0.69300
O846        O  0.78326246  0.18610906  0.42749157    -0.72900
Al847      Al  0.75912422  0.15950025  0.32867232     1.49000
C848        C  0.80874253  0.19378364  0.46825922     0.94400
O849        O  0.81970034  0.13130555  0.43460344    -0.79100
O850        O  0.78745525  0.09431397  0.29435680    -0.72700
Al851      Al  0.81966002  0.16127260  0.34754418     1.90100
O852        O  0.77098172  0.09625987  0.45497556    -0.71800
O853        O  0.74161408  0.09811766  0.21933947    -0.71600
O854        O  0.72018857  0.08840197  0.37788280    -0.77300
O855        O  0.73291334  0.13529966  0.22658974    -0.75500
O856        O  0.77867212  0.14008728  0.33681142    -1.11600
O857        O  0.78399514  0.19122678  0.24619013    -0.70800
C858        C  0.81174184  0.20528509  0.23156070     0.99900
C859        C  0.79890024  0.11109398  0.48381783     0.96300
Al860      Al  0.75699458  0.09806961  0.33638190     1.55600
O861        O  0.82407865  0.18437046  0.44327186    -0.75400
C862        C  0.73076027  0.11368062  0.18483188     1.00500
C863        C  0.81145368  0.11292648  0.25516535     0.95300
O864        O  0.82258324  0.14186917  0.25286791    -0.80800
C865        C  0.61687922  0.15938248  0.01840721    -0.26600
C866        C  0.64608842  0.18007194  0.98575261     0.07000
C867        C  0.64887857  0.20270891  0.91961521     0.26600
C868        C  0.62290669  0.20190917  0.88217418    -0.11100
C869        C  0.59410111  0.18136376  0.91612743    -0.25100
C870        C  0.59186140  0.16092954  0.98729000     0.37400
C871        C  0.67174418  0.17527781  0.01428189     0.07000
F872        F  0.67641526  0.22576900  0.88994977    -0.18800
H873        H  0.62541939  0.21645786  0.82415390     0.16800
F874        F  0.56461786  0.14058317  0.02331524    -0.22600
H875        H  0.61231170  0.14052783  0.06543245     0.18600
C876        C  0.67154965  0.15816404  0.09287837     0.26600
C877        C  0.68929819  0.14536602  0.10417549    -0.11100
C878        C  0.71067939  0.15266788  0.04369841    -0.25100
C879        C  0.71579978  0.17565304  0.97691641     0.37500
C880        C  0.69526073  0.18473958  0.95872174    -0.26700
F881        F  0.65370835  0.15281205  0.15818729    -0.18900
H882        H  0.68486146  0.12842908  0.15784090     0.16800
F883        F  0.73936746  0.18777604  0.92439138    -0.22600
H884        H  0.69758478  0.19808711  0.89815113     0.18600
C885        C  0.63795325  0.44585779  0.88812745    -0.26600
C886        C  0.64314571  0.44577548  0.97999694     0.07000
C887        C  0.62725838  0.41659934  0.02726155     0.26600
C888        C  0.60566596  0.38882416  0.98390920    -0.11100
C889        C  0.59919468  0.38948878  0.89288858    -0.25100
C890        C  0.61618767  0.41819372  0.84522651     0.37400
C891        C  0.66205620  0.47642743  0.02499707     0.07000
F892        F  0.63201391  0.41498102  0.11557123    -0.18800
H893        H  0.59234231  0.36711866  0.02232782     0.16800
F894        F  0.60984352  0.41990205  0.75774361    -0.22600
H895        H  0.64910195  0.46776576  0.84957030     0.18600
C896        C  0.69313865  0.00662768  0.99642066     0.26600
C897        C  0.71324663  0.03803343  0.01782915    -0.11100
C898        C  0.70362405  0.05309890  0.06345461    -0.25100
C899        C  0.67476769  0.03442042  0.09929019     0.37500
C900        C  0.65511762  0.00217878  0.08221366    -0.26700
F901        F  0.70207252  0.49880450  0.92532183    -0.18900
H902        H  0.73528458  0.05166642  0.98934406     0.16800
F903        F  0.66410275  0.04789227  0.14194703    -0.22600
H904        H  0.62948356  0.46234268  0.12227203     0.18600
C905        C  0.98497362  0.29689619  0.06021796    -0.26600
C906        C  0.95743415  0.27264674  0.01911956     0.07000
C907        C  0.95852310  0.26537862  0.93366135     0.26600
C908        C  0.98563532  0.28358716  0.88948073    -0.11100
C909        C  0.50760133  0.28571567  0.89189261    -0.25100
C910        C  0.50351382  0.28510767  0.98061907     0.37400
C911        C  0.92785684  0.25789939  0.06285558     0.07000
F912        F  0.93337057  0.24141692  0.89124003    -0.18800
H913        H  0.98525103  0.27939630  0.82157934     0.16800
F914        F  0.52496733  0.30926148  0.03094424    -0.22600
H915        H  0.98536764  0.30436677  0.12381605     0.18600
C916        C  0.92715786  0.25525189  0.15528441     0.26600
C917        C  0.90188932  0.25003153  0.19469314    -0.11100
C918        C  0.87619187  0.24544389  0.14339994    -0.25100
C919        C  0.87473102  0.24286881  0.05288186     0.37500
C920        C  0.90055504  0.24994009  0.01281486    -0.26700
F921        F  0.95136983  0.25923294  0.20802364    -0.18900
H922        H  0.90324081  0.25175063  0.26477260     0.16800
F923        F  0.84973491  0.23775493  0.00194009    -0.22600
H924        H  0.89965413  0.25172404  0.94219050     0.18600
C925        C  0.68114134  0.24050990  0.11013401    -0.26600
C926        C  0.71069722  0.25838503  0.07927499     0.07000
C927        C  0.71964814  0.28640523  0.02951642     0.26600
C928        C  0.70023033  0.29712347  0.01587373    -0.11100
C929        C  0.67140609  0.28024539  0.05122620    -0.25100
C930        C  0.66146679  0.25096341  0.09507256     0.37400
C931        C  0.73301360  0.24925822  0.10333054     0.07000
F932        F  0.74820685  0.30484223  0.99991534    -0.18800
H933        H  0.70870812  0.31979370  0.98257761     0.16800
F934        F  0.63305468  0.23279540  0.12568408    -0.22600
H935        H  0.67339047  0.21856003  0.14695470     0.18600
C936        C  0.73945375  0.24293159  0.19138705     0.26600
C937        C  0.76493171  0.24110933  0.21494121    -0.11100
C938        C  0.78390953  0.24481993  0.15133637    -0.25100
C939        C  0.77575331  0.24813461  0.06289092     0.37500
C940        C  0.75070235  0.25047765  0.03932082    -0.26700
F941        F  0.72302218  0.24155335  0.25556306    -0.18900
H942        H  0.77106231  0.23903162  0.28327696     0.16800
F943        F  0.79380441  0.25202474  0.99985616    -0.22600
H944        H  0.74593342  0.25468345  0.97097363     0.18600
C945        C  0.98975532  0.23574832  0.10066881    -0.26600
C946        C  0.96167717  0.21050553  0.06569848     0.07000
C947        C  0.96205937  0.19415871  0.99825953     0.26600
C948        C  0.98967577  0.19846314  0.98113468    -0.11100
C949        C  0.50164345  0.18284752  0.89107960    -0.25100
C950        C  0.50895299  0.20131149  0.96298110     0.37400
C951        C  0.93399087  0.19547508  0.11632619     0.07000
F952        F  0.93552335  0.17033543  0.96013411    -0.18800
H953        H  0.98888611  0.18187132  0.94104461     0.16800
F954        F  0.53843415  0.21991694  0.99576080    -0.22600
H955        H  0.99013194  0.24897719  0.15175195     0.18600
C956        C  0.93615104  0.18693822  0.20540612     0.26600
C957        C  0.90975931  0.16480814  0.24790759    -0.11100
C958        C  0.88090950  0.15008993  0.20197634    -0.25100
C959        C  0.87827608  0.16178378  0.11736637     0.37500
C960        C  0.90476654  0.18407614  0.07433739    -0.26700
F961        F  0.96376403  0.19621265  0.24778002    -0.18900
H962        H  0.91225430  0.15578722  0.31269799     0.16800
F963        F  0.85056526  0.14818372  0.07171054    -0.22600
H964        H  0.90250813  0.19046540  0.00613574     0.18600
C965        C  0.72163342  0.48268299  0.18365764    -0.26600
C966        C  0.72625124  0.47276384  0.10835968     0.07000
C967        C  0.75357821  0.00278094  0.09786962     0.26600
C968        C  0.77795228  0.03350813  0.11474216    -0.11100
C969        C  0.78519150  0.04442109  0.19981672    -0.25100
C970        C  0.76578144  0.02535638  0.26625663     0.37400
C971        C  0.70870926  0.43865456  0.09115461     0.07000
F972        F  0.75013513  0.99160122  0.01819221    -0.18800
H973        H  0.79324337  0.04769240  0.06343447     0.16800
F974        F  0.77304109  0.03464780  0.34992804    -0.22600
H975        H  0.70304480  0.46603391  0.22417913     0.18600
C976        C  0.70778263  0.41722510  0.15679516     0.26600
C977        C  0.69124348  0.38519749  0.14150013    -0.11100
C978        C  0.67394344  0.37307999  0.06163374    -0.25100
C979        C  0.67513285  0.39484104  0.99574048     0.37500
C980        C  0.69322080  0.42720992  0.00959535    -0.26700
F981        F  0.72343125  0.42732920  0.23560061    -0.18900
H982        H  0.69156422  0.36962830  0.19372317     0.16800
F983        F  0.65732384  0.38547185  0.92051339    -0.22600
H984        H  0.69383084  0.44325854  0.95756424     0.18600
C985        C  0.70866897  0.25590243  0.65411146    -0.26600
C986        C  0.72980397  0.26356528  0.59141344     0.07000
C987        C  0.74362542  0.29360396  0.54837486     0.26600
C988        C  0.73884570  0.31570204  0.57416593    -0.11100
C989        C  0.72168968  0.30934382  0.64595378    -0.25100
C990        C  0.70572287  0.27885698  0.68394242     0.37400
C991        C  0.74037261  0.24232355  0.58048243     0.07000
F992        F  0.76444520  0.30333968  0.48804456    -0.18800
H993        H  0.75159228  0.33923778  0.54444348     0.16800
F994        F  0.68983864  0.27201483  0.75540039    -0.22600
H995        H  0.69573838  0.23261763  0.68469063     0.18600
C996        C  0.74250299  0.22425479  0.65271789     0.26600
C997        C  0.75749118  0.20925882  0.64743682    -0.11100
C998        C  0.77504421  0.21582090  0.57632221    -0.25100
C999        C  0.77135360  0.23172826  0.50183621     0.37500
C1000       C  0.75263628  0.24311484  0.50230283    -0.26700
F1001       F  0.73373330  0.22398636  0.73253859    -0.18900
H1002       H  0.76001041  0.19713158  0.70604472     0.16800
F1003       F  0.78942022  0.24065428  0.43436333    -0.22600
H1004       H  0.75039820  0.25516138  0.44344594     0.18600
C1005       C  0.92527829  0.23485193  0.62044927    -0.26600
C1006       C  0.93955116  0.25431304  0.54750698     0.07000
C1007       C  0.92209692  0.26026272  0.48274653     0.26600
C1008       C  0.89074387  0.24694772  0.49169826    -0.11100
C1009       C  0.87665303  0.22820693  0.56652213    -0.25100
C1010       C  0.89441356  0.22226346  0.63051299     0.37400
C1011       C  0.97296852  0.26931793  0.54252787     0.07000
F1012       F  0.93574488  0.28008244  0.41307388    -0.18800
H1013       H  0.87816687  0.25320797  0.44373178     0.16800
F1014       F  0.88222688  0.20538659  0.70553143    -0.22600
H1015       H  0.93838133  0.23026697  0.67138248     0.18600
C1016       C  0.99380477  0.30170188  0.55301844     0.26600
C1017       C  0.02530555  0.31546989  0.54902620    -0.11100
C1018       C  0.53584378  0.31023530  0.45362174    -0.25100
C1019       C  0.01575746  0.26490636  0.52472529     0.37500
C1020       C  0.98438219  0.25108570  0.53054469    -0.26700
F1021       F  0.98365340  0.31998124  0.56614594    -0.18900
H1022       H  0.54461373  0.34887267  0.36256184     0.16800
F1023       F  0.02592993  0.24701578  0.50780901    -0.22600
H1024       H  0.96897440  0.22626579  0.52271880     0.18600
C1025       C  0.75949434  0.01087301  0.74527967    -0.26600
C1026       C  0.74968085  0.49959052  0.57921577     0.07000
C1027       C  0.76274363  0.51749866  0.50167429     0.26600
C1028       C  0.76257496  0.03705289  0.57627011    -0.11100
C1029       C  0.77066005  0.05593858  0.64751099    -0.25100
C1030       C  0.76906660  0.04223718  0.73286464     0.37400
C1031       C  0.74127588  0.46644109  0.59659870     0.07000
F1032       F  0.76303998  0.50395320  0.43098103    -0.18800
H1033       H  0.76382774  0.04645252  0.50999834     0.16800
F1034       F  0.77856192  0.05921988  0.80537764    -0.22600
H1035       H  0.73695743  0.50245991  0.70595363     0.18600
C1036       C  0.75835787  0.45618790  0.56562428     0.26600
C1037       C  0.75276365  0.42678882  0.59270380    -0.11100
C1038       C  0.73231280  0.40795356  0.65749967    -0.25100
C1039       C  0.71604982  0.41846957  0.69085181     0.37500
C1040       C  0.71890337  0.44610454  0.65625447    -0.26700
F1041       F  0.78271407  0.47543320  0.51677604    -0.18900
H1042       H  0.76659491  0.41990460  0.56854347     0.16800
F1043       F  0.70025800  0.40446275  0.76331316    -0.22600
H1044       H  0.70499036  0.45254383  0.68180171     0.18600
C1045       C  0.91063118  0.17005608  0.55835036    -0.26600
C1046       C  0.92333372  0.16300011  0.63435970     0.07000
C1047       C  0.90448006  0.14557843  0.70367324     0.26600
C1048       C  0.87382225  0.13606235  0.69658002    -0.11100
C1049       C  0.86158496  0.14441462  0.62157788    -0.25100
C1050       C  0.88060972  0.16183470  0.55293891     0.37400
C1051       C  0.95604092  0.17382932  0.64002155     0.07000
F1052       F  0.91527197  0.13680526  0.77688862    -0.18800
H1053       H  0.85955989  0.12214298  0.75005878     0.16800
F1054       F  0.87196785  0.17419648  0.48446155    -0.22600
H1055       H  0.92416053  0.18320958  0.50332873     0.18600
C1056       C  0.96861699  0.17105181  0.56846380     0.26600
C1057       C  0.51952331  0.23602122  0.39168687    -0.11100
C1058       C  0.53385170  0.22658817  0.45778303    -0.25100
C1059       C  0.00456150  0.19305746  0.72568802     0.37500
C1060       C  0.97477774  0.18628904  0.71736193    -0.26700
F1061       F  0.95098480  0.15721571  0.49467340    -0.18900
H1062       H  0.53280998  0.25374959  0.34208066     0.16800
F1063       F  0.01994129  0.19923571  0.80544618    -0.22600
H1064       H  0.96579989  0.18909044  0.77304144     0.18600
C1065       C  0.67486984  0.50381850  0.39857739    -0.26600
C1066       C  0.67636131  0.48926239  0.47945590     0.07000
C1067       C  0.68821652  0.99922004  0.58902963     0.26600
C1068       C  0.68920414  0.02683888  0.57498933    -0.11100
C1069       C  0.68143222  0.03506164  0.49169409    -0.25100
C1070       C  0.67683660  0.01777210  0.41989252     0.37400
C1071       C  0.66479973  0.45563540  0.48455792     0.07000
F1072       F  0.69195989  0.98981113  0.67228065    -0.18800
H1073       H  0.69274386  0.04003138  0.63088668     0.16800
F1074       F  0.66905238  0.02524346  0.33878631    -0.22600
H1075       H  0.66908181  0.49174480  0.33846743     0.18600
C1076       C  0.63907270  0.43465370  0.53228351     0.26600
C1077       C  0.62518838  0.40256878  0.52927751    -0.11100
C1078       C  0.63597871  0.39041422  0.47678613    -0.25100
C1079       C  0.66292094  0.41136524  0.43311993     0.37500
C1080       C  0.67712560  0.44387041  0.43663493    -0.26700
F1081       F  0.62549015  0.44501722  0.57537565    -0.18900
H1082       H  0.60420024  0.38731298  0.56226606     0.16800
F1083       F  0.67462154  0.40046685  0.38415926    -0.22600
H1084       H  0.69707132  0.45980341  0.39989989     0.18600
C1085       C  0.67052016  0.16843719  0.43046405    -0.26600
C1086       C  0.66912312  0.17716341  0.51286477     0.07000
C1087       C  0.67546563  0.16365537  0.58876654     0.26600
C1088       C  0.68114619  0.14059033  0.58217850    -0.11100
C1089       C  0.67946651  0.12972015  0.50025542    -0.25100
C1090       C  0.67545582  0.14469088  0.42411290     0.37400
C1091       C  0.65805974  0.19777905  0.51891730     0.07000
F1092       F  0.67442539  0.17139777  0.66944368    -0.18800
H1093       H  0.68372359  0.12886917  0.64163896     0.16800
F1094       F  0.67255354  0.13378224  0.34442495    -0.19800
H1095       H  0.66523722  0.17810273  0.37094683     0.18600
C1096       C  0.66950147  0.22549320  0.46642526     0.26600
C1097       C  0.65671195  0.24294500  0.46584737    -0.11100
C1098       C  0.63042955  0.23171620  0.51113022    -0.25100
C1099       C  0.62002506  0.20499438  0.56785797     0.37500
C1100       C  0.63406532  0.18846737  0.57241064    -0.26700
F1101       F  0.69227875  0.23513497  0.41295310    -0.18900
H1102       H  0.66518367  0.26346297  0.42166634     0.16800
F1103       F  0.59410547  0.19255449  0.61031743    -0.22600
H1104       H  0.62443464  0.16687113  0.61231049     0.18600
N1105       N  0.68947522  0.60011283  0.44249473    -0.01900
C1106       C  0.67334166  0.61173084  0.46387202     0.00700
C1107       C  0.64845864  0.58914988  0.51011454    -0.22200
C1108       C  0.64903014  0.56290972  0.51852472    -0.22400
C1109       C  0.67417638  0.57011706  0.47700953     0.00600
H1110       H  0.63258628  0.59218352  0.53929191     0.14400
H1111       H  0.63309258  0.54097742  0.55249866     0.14400
N1112       N  0.56983710  0.70472484  0.69778977    -0.01900
C1113       C  0.58348034  0.68927176  0.68809144     0.00700
C1114       C  0.56199556  0.65965202  0.65765847    -0.22200
C1115       C  0.53444412  0.65656938  0.64709519    -0.22400
C1116       C  0.53975538  0.68427550  0.67193053     0.00600
H1117       H  0.56641918  0.64291920  0.63877623     0.14400
H1118       H  0.51286725  0.63648752  0.62233475     0.14400
N1119       N  0.81518133  0.62116133  0.51573509    -0.01900
C1120       C  0.79794676  0.59944519  0.57853362     0.00700
C1121       C  0.81308037  0.60993369  0.66010298    -0.22200
C1122       C  0.84055801  0.63760584  0.64636633    -0.22400
C1123       C  0.84166623  0.64346016  0.55716843     0.00600
H1124       H  0.80740427  0.59677867  0.72219164     0.14400
H1125       H  0.85958448  0.64926130  0.69494922     0.14400
N1126       N  0.81652798  0.74148265  0.38437506    -0.01900
C1127       C  0.80059762  0.75515433  0.38406087     0.00700
C1128       C  0.81958467  0.78704348  0.36451987    -0.22200
C1129       C  0.84818707  0.79364852  0.35636634    -0.22400
C1130       C  0.84597313  0.76561708  0.36985561     0.00600
H1131       H  0.81431460  0.80435939  0.36903133     0.14400
H1132       H  0.86907072  0.81685185  0.35132425     0.14400
N1133       N  0.70609861  0.83984262  0.75184061    -0.01900
C1134       C  0.71984948  0.82384496  0.75631948     0.00700
C1135       C  0.75063113  0.84344943  0.78245699    -0.22200
C1136       C  0.75647146  0.87256677  0.79027220    -0.22400
C1137       C  0.72905208  0.86998186  0.77008586     0.00600
H1138       H  0.76791798  0.83829493  0.78291480     0.14400
H1139       H  0.77893092  0.89406493  0.79933332     0.14400
N1140       N  0.59024583  0.82712889  0.57405345    -0.01900
C1141       C  0.56573478  0.80742707  0.52016233     0.00700
C1142       C  0.57401605  0.81389895  0.43463943    -0.22200
C1143       C  0.60396606  0.83907697  0.43566858    -0.22400
C1144       C  0.61327457  0.84750246  0.52182376     0.00600
H1145       H  0.55888384  0.80440697  0.37633468     0.14400
H1146       H  0.61577112  0.85257382  0.37811573     0.14400
O1147       O  0.62023420  0.83816014  0.70701643    -0.80200
C1148       C  0.57330257  0.73916775  0.96807359     0.99100
O1149       O  0.55809691  0.74416708  0.90748236    -0.69300
O1150       O  0.56014833  0.79657602  0.88297643    -0.72900
Al1151     Al  0.56831583  0.77403300  0.81056354     1.49000
C1152       C  0.57296659  0.82586541  0.88254359     0.94400
O1153       O  0.64277684  0.84064421  0.95205129    -0.79100
O1154       O  0.65673390  0.79668627  0.78442306    -0.72700
Al1155     Al  0.63068648  0.83795784  0.82927020     1.90100
O1156       O  0.65602261  0.80709579  0.95704594    -0.71800
O1157       O  0.60432247  0.74173769  0.80009529    -0.71600
O1158       O  0.60214362  0.75435116  0.96820789    -0.77300
O1159       O  0.56885956  0.74735607  0.73387788    -0.75500
O1160       O  0.60876590  0.79603487  0.83755530    -1.11600
O1161       O  0.57135463  0.79962714  0.70726726    -0.70800
C1162       C  0.59397168  0.82192648  0.66731752     0.99900
C1163       C  0.65524442  0.82758155  0.99322582     0.96300
Al1164     Al  0.62799840  0.77676980  0.87377954     1.55600
O1165       O  0.59943316  0.84370949  0.85520398    -0.75400
C1166       C  0.58213660  0.73305714  0.74394818     1.00500
C1167       C  0.67513788  0.82605486  0.77603088     0.95300
O1168       O  0.66785210  0.84361250  0.80008549    -0.80800
N1169       N  0.81213654  0.59062366  0.18930189    -0.01900
C1170       C  0.79665357  0.55924064  0.21002906     0.00700
C1171       C  0.81650598  0.55137234  0.24863345    -0.22200
C1172       C  0.84534963  0.57812600  0.24769432    -0.22400
C1173       C  0.84235427  0.60168802  0.20819447     0.00600
H1174       H  0.81107571  0.52787909  0.26416321     0.14400
H1175       H  0.86640191  0.57913421  0.26297476     0.14400
N1176       N  0.66586442  0.83324167  0.08446894    -0.01900
C1177       C  0.66706774  0.81114945  0.13787046     0.00700
C1178       C  0.65610331  0.80887078  0.21762522    -0.22200
C1179       C  0.64955264  0.83122337  0.21440383    -0.22400
C1180       C  0.65845473  0.84796619  0.13486796     0.00600
H1181       H  0.65634964  0.79547443  0.27600212     0.14400
H1182       H  0.64538849  0.83884793  0.27114603     0.14400
N1183       N  0.81058335  0.71847591  0.05363768    -0.01900
C1184       C  0.79842882  0.73527558  0.02041931     0.00700
C1185       C  0.81135804  0.75168426  0.94417041    -0.22200
C1186       C  0.83226057  0.74538730  0.92891453    -0.22400
C1187       C  0.83157573  0.72490804  0.99585939     0.00600
H1188       H  0.80652365  0.76724275  0.90480853     0.14400
H1189       H  0.84730845  0.75572923  0.87561560     0.14400
N1190       N  0.55600383  0.83888060  0.90177381    -0.01900
C1191       C  0.52511614  0.82278670  0.88181806     0.00700
C1192       C  0.51749945  0.84266203  0.83880804    -0.22200
C1193       C  0.54362829  0.87225503  0.83945336    -0.22400
C1194       C  0.56666206  0.86958313  0.88095516     0.00600
H1195       H  0.49452892  0.83725112  0.82338348     0.14400
H1196       H  0.54484371  0.89377812  0.82169992     0.14400
N1197       N  0.69187798  0.59177815  0.07968344    -0.01900
C1198       C  0.67779657  0.60410941  0.02881566     0.00700
C1199       C  0.65851510  0.58404463  0.96343585    -0.22200
C1200       C  0.66068757  0.55884067  0.97274568    -0.22400
C1201       C  0.68092378  0.56367974  0.04408328     0.00600
H1202       H  0.64322936  0.58663882  0.91602434     0.14400
H1203       H  0.64795265  0.53836095  0.93335476     0.14400
N1204       N  0.55730489  0.71464384  0.03448225    -0.01900
C1205       C  0.56617372  0.69652632  0.08054928     0.00700
C1206       C  0.54263035  0.67298196  0.12948539    -0.22200
C1207       C  0.51886730  0.67662905  0.11489926    -0.22400
C1208       C  0.52816807  0.70199913  0.05660878     0.00600
H1209       H  0.54231403  0.65442156  0.17010111     0.14400
H1210       H  0.49700478  0.66237208  0.14412146     0.14400
O1211       O  0.81364399  0.68280945  0.15754056    -0.80200
C1212       C  0.71459545  0.61375093  0.38603415     0.99100
O1213       O  0.72015398  0.63616878  0.33240355    -0.69300
O1214       O  0.77413219  0.69106958  0.34678516    -0.72900
Al1215     Al  0.75237434  0.66220543  0.25398994     1.49000
C1216       C  0.80297520  0.71032126  0.35324923     0.94400
O1217       O  0.81852505  0.65389952  0.39409533    -0.79100
O1218       O  0.77171665  0.59478745  0.21545946    -0.72700
Al1219     Al  0.81384680  0.66700943  0.27669831     1.90100
O1220       O  0.78016960  0.60424339  0.39303883    -0.71800
O1221       O  0.71998511  0.59078612  0.20838876    -0.71600
O1222       O  0.72945144  0.60138521  0.38605513    -0.77300
O1223       O  0.72886451  0.63623673  0.15776848    -0.75500
O1224       O  0.77279587  0.64356433  0.27679277    -1.11600
O1225       O  0.77917402  0.69290663  0.17019618    -0.70800
C1226       C  0.80088264  0.69711930  0.13017054     0.99900
C1227       C  0.80440557  0.62647779  0.42982171     0.96300
Al1228     Al  0.75228192  0.60180837  0.29861232     1.55600
O1229       O  0.81989628  0.70385865  0.32193445    -0.75400
C1230       C  0.71465622  0.60685247  0.15157543     1.00500
C1231       C  0.80008318  0.60839308  0.20956677     0.95300
O1232       O  0.81822122  0.63613391  0.23388493    -0.80800
C1233       C  0.62901395  0.68340165  0.15002582    -0.26600
C1234       C  0.64317846  0.68881513  0.07161146     0.07000
C1235       C  0.63479365  0.70242823  0.99923477     0.26600
C1236       C  0.60915848  0.70380852  0.00064859    -0.11100
C1237       C  0.59529465  0.69838455  0.07863617    -0.25100
C1238       C  0.60689561  0.68986722  0.15471805     0.37400
C1239       C  0.66169394  0.67523842  0.06216385     0.07000
F1240       F  0.65068220  0.71418516  0.92629977    -0.18800
H1241       H  0.59961322  0.70794016  0.93951961     0.16800
F1242       F  0.59550140  0.68577589  0.23345818    -0.22600
H1243       H  0.63338151  0.67269745  0.20819447     0.18600
C1244       C  0.67225582  0.66401033  0.13550581     0.26600
C1245       C  0.67775174  0.64088674  0.12598952    -0.11100
C1246       C  0.67860344  0.63274885  0.04258036    -0.25100
C1247       C  0.67460015  0.64897178  0.96939786     0.37500
C1248       C  0.66455752  0.66829374  0.97880719    -0.26700
F1249       F  0.67680042  0.67455386  0.21669027    -0.18900
H1250       H  0.68008450  0.62865206  0.18431589     0.16800
F1251       F  0.67774371  0.64404495  0.88733739    -0.22600
H1252       H  0.65759315  0.67591958  0.91901326     0.18600
C1253       C  0.63562612  0.95290671  0.90073600    -0.26600
C1254       C  0.64035375  0.95643319  0.99177102     0.07000
C1255       C  0.62249651  0.92970339  0.04678456     0.26600
C1256       C  0.60026349  0.90043877  0.01083781    -0.11100
C1257       C  0.59511996  0.89741571  0.91957444    -0.25100
C1258       C  0.61315037  0.92396599  0.86528113     0.37400
C1259       C  0.66345387  0.98830406  0.02676273     0.07000
F1260       F  0.62643250  0.93189114  0.13501749    -0.18800
H1261       H  0.58604845  0.88053124  0.05416751     0.16800
F1262       F  0.60766199  0.92216184  0.77733312    -0.22600
H1263       H  0.64851682  0.97302925  0.85648368     0.18600
C1264       C  0.68901803  0.50240143  0.99024737     0.26600
C1265       C  0.70112155  0.53287715  0.01616957    -0.11100
C1266       C  0.68567988  0.53832742  0.07317875    -0.25100
C1267       C  0.66182211  0.51213007  0.11785241     0.37500
C1268       C  0.65023658  0.48155916  0.09412693    -0.26700
F1269       F  0.70203181  0.99495350  0.94017635    -0.18900
H1270       H  0.71941464  0.55252418  0.98023562     0.16800
F1271       F  0.64534767  0.51610557  0.17025065    -0.22600
H1272       H  0.63232387  0.98878300  0.10588207     0.18600
C1273       C  0.96759274  0.77412087  0.02966533    -0.26600
C1274       C  0.94767585  0.74908476  0.97446827     0.07000
C1275       C  0.95965595  0.74753824  0.89842525     0.26600
C1276       C  0.98840175  0.77278793  0.87219355    -0.11100
C1277       C  0.50224495  0.79794871  0.94053408    -0.25100
C1278       C  0.50150563  0.80612109  0.02409001     0.37400
C1279       C  0.91377579  0.72969824  0.98754077     0.07000
F1280       F  0.94309535  0.72264243  0.84643096    -0.18800
H1281       H  0.99552266  0.77278472  0.80886831     0.16800
F1282       F  0.52616462  0.83244988  0.05972948    -0.22600
H1283       H  0.95988393  0.77716487  0.08758869     0.18600
C1284       C  0.90254413  0.72589399  0.07048634     0.26600
C1285       C  0.87373151  0.72089744  0.07654542    -0.11100
C1286       C  0.85422529  0.71602477  0.00113492    -0.25100
C1287       C  0.86274365  0.71242141  0.92181029     0.37500
C1288       C  0.89250625  0.72059943  0.91433806    -0.26700
F1289       F  0.92016737  0.72928369  0.14533241    -0.18900
H1290       H  0.86824858  0.72386609  0.13885584     0.16800
F1291       F  0.84382818  0.70565217  0.84790393    -0.22600
H1292       H  0.89924211  0.72257261  0.84908167     0.18600
C1293       C  0.69751104  0.75852090  0.15789019    -0.26600
C1294       C  0.72093158  0.77391984  0.09990497     0.07000
C1295       C  0.72587256  0.80085238  0.05173743     0.26600
C1296       C  0.70808099  0.81252750  0.06344315    -0.11100
C1297       C  0.68428313  0.79701931  0.12119160    -0.25100
C1298       C  0.67912769  0.76961441  0.16791358     0.37400
C1299       C  0.73928693  0.76102228  0.08766805     0.07000
F1300       F  0.74816052  0.81609420  0.99421270    -0.18800
H1301       H  0.71328787  0.83404608  0.02805106     0.16800
F1302       F  0.65625893  0.75329098  0.22320668    -0.22600
H1303       H  0.69327911  0.73761223  0.19501159     0.18600
C1304       C  0.76580333  0.76914299  0.14185027     0.26600
C1305       C  0.78358616  0.75770960  0.12638709    -0.11100
C1306       C  0.77516369  0.73813868  0.05647073    -0.25100
C1307       C  0.74805910  0.72934698  0.00442693     0.37500
C1308       C  0.73043566  0.74075978  0.01987518    -0.26700
F1309       F  0.77528727  0.78941892  0.20652940    -0.18900
H1310       H  0.80498040  0.76581874  0.16510932     0.16800
F1311       F  0.73987519  0.71146197  0.93446672    -0.22600
H1312       H  0.71031070  0.73459870  0.97698700     0.18600
C1313       C  0.97627810  0.70209520  0.03078141    -0.26600
C1314       C  0.94597903  0.67830453  0.00338458     0.07000
C1315       C  0.94129058  0.66362345  0.92507149     0.26600
C1316       C  0.96630376  0.67032106  0.88141901    -0.11100
C1317       C  0.50822009  0.71358780  0.03336786    -0.25100
C1318       C  0.51052832  0.73487322  0.08915230     0.37400
C1319       C  0.92007484  0.66595678  0.06132029     0.07000
F1320       F  0.91282103  0.64018145  0.89556576    -0.18800
H1321       H  0.96190182  0.65675086  0.82555898     0.16800
F1322       F  0.53808240  0.75619158  0.12914491    -0.22600
H1323       H  0.98066727  0.71481438  0.08850918     0.18600
C1324       C  0.92391057  0.66017499  0.15182908     0.26600
C1325       C  0.89843902  0.64257343  0.20231175    -0.11100
C1326       C  0.86848951  0.62957665  0.16394852    -0.25100
C1327       C  0.86479674  0.63792874  0.07590278     0.37500
C1328       C  0.89034525  0.65595083  0.02547313    -0.26700
F1329       F  0.95176938  0.66848101  0.19014500    -0.18900
H1330       H  0.90197733  0.63669526  0.27017855     0.16800
F1331       F  0.83637254  0.62599502  0.03590239    -0.22600
H1332       H  0.88659939  0.66067914  0.95679485     0.18600
C1333       C  0.74060854  0.99502976  0.24861679    -0.26600
C1334       C  0.73542272  0.98282685  0.16582499     0.07000
C1335       C  0.74977045  0.49527127  0.05516165     0.26600
C1336       C  0.77035997  0.52601846  0.08255444    -0.11100
C1337       C  0.76796889  0.53473926  0.16343620    -0.25100
C1338       C  0.74229285  0.51344451  0.21094069     0.37400
C1339       C  0.71514375  0.94842559  0.15581818     0.07000
F1340       F  0.75472548  0.48682751  0.98130334    -0.18800
H1341       H  0.79021992  0.54197626  0.04545637     0.16800
F1342       F  0.73881042  0.52155928  0.28774892    -0.22600
H1343       H  0.72678359  0.98004659  0.30179711     0.18600
C1344       C  0.71958756  0.92847172  0.21460493     0.26600
C1345       C  0.70127925  0.89620408  0.20547891    -0.11100
C1346       C  0.67773367  0.88273006  0.13831084    -0.25100
C1347       C  0.67374783  0.90265008  0.07781531     0.37500
C1348       C  0.69256262  0.93525777  0.08635415    -0.26700
F1349       F  0.74238510  0.94023918  0.27943818    -0.18900
H1350       H  0.70561962  0.88156202  0.25151842     0.16800
F1351       F  0.65154192  0.89086807  0.01182775    -0.22600
H1352       H  0.68926445  0.95013850  0.03916192     0.18600
C1353       C  0.72175566  0.75826882  0.68538373    -0.26600
C1354       C  0.72606445  0.76650242  0.59555158     0.07000
C1355       C  0.71915362  0.78813727  0.55731633     0.26600
C1356       C  0.71146100  0.80331892  0.60951473    -0.11100
C1357       C  0.71087752  0.79763455  0.70071057    -0.25100
C1358       C  0.71416999  0.77352968  0.73719651     0.37400
C1359       C  0.74085391  0.75540130  0.54492008     0.07000
F1360       F  0.72309188  0.79730818  0.47140499    -0.18800
H1361       H  0.70969728  0.82229802  0.58007074     0.16800
F1362       F  0.71364842  0.76739744  0.82499667    -0.22600
H1363       H  0.72610773  0.74135846  0.71729016     0.18600
C1364       C  0.76656141  0.75534612  0.58208826     0.26600
C1365       C  0.78323995  0.74975184  0.53085862    -0.11100
C1366       C  0.77536346  0.74487484  0.44106783    -0.25100
C1367       C  0.74828832  0.74210967  0.40547364     0.37500
C1368       C  0.73118879  0.74720057  0.45690333    -0.26700
F1369       F  0.77765626  0.76390490  0.66553348    -0.18900
H1370       H  0.80449259  0.75290196  0.55918620     0.16800
F1371       F  0.73967124  0.73682725  0.31930207    -0.22600
H1372       H  0.71102711  0.74593941  0.42666086     0.18600
C1373       C  0.91877951  0.78488059  0.49998500    -0.26600
C1374       C  0.93588824  0.78534266  0.43554004     0.07000
C1375       C  0.92091451  0.77368596  0.35292551     0.26600
C1376       C  0.89035620  0.76439787  0.33341745    -0.11100
C1377       C  0.87393211  0.76571907  0.39650037    -0.25100
C1378       C  0.88820202  0.77531927  0.48066946     0.37400
C1379       C  0.96927353  0.79834192  0.45433159     0.07000
F1380       F  0.93601515  0.77186754  0.29042304    -0.18800
H1381       H  0.87999588  0.75762167  0.26783617     0.16800
F1382       F  0.87320704  0.77767570  0.54239963    -0.22600
H1383       H  0.92953677  0.79337774  0.56416620     0.18600
C1384       C  0.99091110  0.82007433  0.39552649     0.26600
C1385       C  0.02158345  0.82966291  0.40917895    -0.11100
C1386       C  0.53315406  0.79070588  0.54061865    -0.25100
C1387       C  0.01022040  0.79728183  0.54261501     0.37500
C1388       C  0.97979633  0.78882071  0.53073872    -0.26700
F1389       F  0.98250718  0.83238923  0.32517914    -0.18900
H1390       H  0.54153234  0.82553839  0.62834409     0.16800
F1391       F  0.01734366  0.78356992  0.61126992    -0.22600
H1392       H  0.96399330  0.77322983  0.57950656     0.18600
C1393       C  0.74671170  0.51467192  0.64504420    -0.26600
C1394       C  0.75099040  0.99187439  0.67400114     0.07000
C1395       C  0.75269035  0.00551789  0.58890073     0.26600
C1396       C  0.77674391  0.55014791  0.49737166    -0.11100
C1397       C  0.77520454  0.56518769  0.56620277    -0.25100
C1398       C  0.75737684  0.54634177  0.63596636     0.37400
C1399       C  0.74113237  0.95842144  0.69083521     0.07000
F1400       F  0.74399089  0.98846260  0.51709416    -0.18800
H1401       H  0.79037947  0.56359653  0.44258681     0.16800
F1402       F  0.75241204  0.55906621  0.69985490    -0.22600
H1403       H  0.75967816  0.00175513  0.81163296     0.18600
C1404       C  0.75066594  0.94444624  0.64000439     0.26600
C1405       C  0.74371827  0.91428623  0.66257770    -0.11100
C1406       C  0.72884101  0.89799867  0.73879095    -0.25100
C1407       C  0.71954979  0.91182516  0.79037604     0.37500
C1408       C  0.72452429  0.94109878  0.76452986    -0.26700
F1409       F  0.76918718  0.96072704  0.57351693    -0.18900
H1410       H  0.75211626  0.90449925  0.62387043     0.16800
F1411       F  0.70780793  0.89834540  0.86878552    -0.22600
H1412       H  0.71673873  0.95093878  0.80522438     0.18600
C1413       C  0.92105974  0.70674070  0.49821533    -0.26600
C1414       C  0.93425555  0.68939248  0.50086563     0.07000
C1415       C  0.91498164  0.65645994  0.50232312     0.26600
C1416       C  0.88361063  0.64144962  0.51061352    -0.11100
C1417       C  0.87128927  0.65911386  0.51865346    -0.25100
C1418       C  0.88983122  0.69177742  0.50891998     0.37400
C1419       C  0.96802246  0.70545531  0.50932352     0.07000
F1420       F  0.92668334  0.63888209  0.49952010    -0.18800
H1421       H  0.86934681  0.61606320  0.51792445     0.16800
F1422       F  0.87813379  0.70909153  0.51585907    -0.22600
H1423       H  0.93515633  0.73182918  0.49312260     0.18600
C1424       C  0.98667414  0.72971099  0.44971222     0.26600
C1425       C  0.49770574  0.68525248  0.58796222    -0.11100
C1426       C  0.51483587  0.68933754  0.66780266    -0.25100
C1427       C  0.01315640  0.70845342  0.58099381     0.37500
C1428       C  0.98170903  0.69584881  0.57691397    -0.26700
F1429       F  0.97421656  0.73936270  0.38316719    -0.18900
H1430       H  0.50534108  0.68267809  0.52882246     0.16800
F1431       F  0.02475353  0.69582011  0.64063987    -0.22600
H1432       H  0.96772645  0.67749669  0.62445728     0.18600
C1433       C  0.67684902  0.99051763  0.43344417    -0.26600
C1434       C  0.68037692  0.97994196  0.51888718     0.07000
C1435       C  0.68281955  0.50486706  0.55677617     0.26600
C1436       C  0.68612060  0.53367903  0.55367953    -0.11100
C1437       C  0.68184585  0.54683579  0.47401478    -0.25100
C1438       C  0.67698806  0.53223575  0.39601180     0.37400
C1439       C  0.66892096  0.94649715  0.53620387     0.07000
F1440       F  0.68287010  0.49075933  0.63603985    -0.18800
H1441       H  0.68912545  0.54431591  0.61454137     0.16800
F1442       F  0.67102289  0.54371621  0.31910622    -0.22600
H1443       H  0.67068699  0.97592360  0.37862098     0.18600
C1444       C  0.64455572  0.92813798  0.59073632     0.26600
C1445       C  0.62890271  0.89560252  0.59453226    -0.11100
C1446       C  0.63679339  0.88058872  0.54259842    -0.25100
C1447       C  0.66272310  0.89902680  0.49309543     0.37500
C1448       C  0.67831705  0.93174137  0.48888741    -0.26700
F1449       F  0.63316901  0.94141210  0.63086467    -0.18900
H1450       H  0.60845454  0.88223657  0.63068206     0.16800
F1451       F  0.67125217  0.88535278  0.44272353    -0.22600
H1452       H  0.69641862  0.94531122  0.44446378     0.18600
C1453       C  0.65620374  0.67107035  0.46238646    -0.26600
C1454       C  0.67075021  0.68366388  0.54414415     0.07000
C1455       C  0.69413616  0.67953369  0.57998171     0.26600
C1456       C  0.70075780  0.66111690  0.53864987    -0.11100
C1457       C  0.68278055  0.64464704  0.46447961    -0.25100
C1458       C  0.66194828  0.65158421  0.42328894     0.37400
C1459       C  0.65756149  0.69583476  0.59668487     0.07000
F1460       F  0.70882706  0.69096969  0.65869964    -0.18800
H1461       H  0.71643995  0.65564759  0.57272416     0.16800
F1462       F  0.64302807  0.63485227  0.35440843    -0.19800
H1463       H  0.63772834  0.67319443  0.43355598     0.18600
C1464       C  0.64825991  0.71547820  0.55799765     0.26600
C1465       C  0.62834558  0.71938556  0.59977681    -0.11100
C1466       C  0.61627999  0.70270188  0.67871628    -0.25100
C1467       C  0.62861493  0.68644679  0.72243264     0.37500
C1468       C  0.64916155  0.68321728  0.68201295    -0.26700
F1469       F  0.65613027  0.72859762  0.47637134    -0.18900
H1470       H  0.61879775  0.73156457  0.56402190     0.16800
F1471       F  0.61648959  0.66894857  0.79676493    -0.22600
H1472       H  0.65554135  0.66772559  0.71346381     0.18600
loop_ 
_geom_bond_atom_site_label_1 
_geom_bond_atom_site_label_2 
_geom_bond_distance 
_geom_bond_site_symmetry_2 
_ccdc_geom_bond_type 
N1            C5   1.360       .  A
N1            C2   1.366       .  A
N1          C108   1.449       .  S
C2            C3   1.385       .  A
C2          C353   1.477       .  S
C3            C4   1.362       .  A
C3            H6   1.083       .  S
C4            C5   1.377       .  A
C4            H7   1.083       .  S
C5          C333   1.470       .  S
N8           C12   1.366       .  A
N8            C9   1.371       .  A
N8           C62   1.456       .  S
C9           C10   1.384       .  A
C9          C362   1.481       .  S
C10          C11   1.353       .  A
C10          H13   1.083       .  S
C11          C12   1.378       .  A
C11          H14   1.083       .  S
C12         C322   1.469       .  S
N15          C19   1.352       .  A
N15          C16   1.362       .  A
N15         C123   1.445       .  S
C16          C17   1.394       .  A
C16         C293   1.492       .  S
C17          C18   1.367       .  A
C17          H20   1.081       .  S
C18          C19   1.373       .  A
C18          H21   1.083       .  S
C19         C313   1.467       .  S
N22          C26   1.361       .  A
N22          C23   1.360       .  A
N22         C112   1.444       .  S
C23          C24   1.384       .  A
C23         C262   1.476       .  S
C24          C25   1.368       .  A
C24          H27   1.083       .  S
C25          C26   1.377       .  A
C25          H28   1.082       .  S
C26         C273   1.477       .  S
N29          C33   1.361       .  A
N29          C30   1.358       .  A
N29          C63   1.442       .  S
C30          C31   1.384       .  A
C30         C253   1.474       .  S
C31          C32   1.368       .  A
C31          H34   1.083       .  S
C32          C33   1.378       .  A
C32          H35   1.082       .  S
C33         C302   1.479       .  S
N36          C40   1.357       .  A
N36          C37   1.354       .  A
N36          C58   1.443       .  S
C37          C38   1.380       .  A
C37         C282   1.474       .  S
C38          C39   1.375       .  A
C38          H41   1.083       .  S
C39          C40   1.386       .  A
C39          H42   1.082       .  S
C40         C342   1.485       .  S
O43          C58   1.268       .  A
O43         Al51   1.896       .  S
C44         N100   1.440   1_556  S
C44          O54   1.258       .  A
C44          O45   1.262       .  A
O45         Al47   1.914       .  S
O46          C48   1.262       .  A
O46         Al47   1.936       .  S
Al47         O55   1.933       .  S
Al47         O57   1.929       .  S
Al47         O56   1.794       .  S
C48          N86   1.449       .  S
C48          O61   1.253       .  A
O49          C59   1.263       .  A
O49         Al51   1.899       .  S
O50          C63   1.259       .  A
O50         Al60   1.913       .  S
Al51         O64   1.897       .  S
Al51         O61   1.892       .  S
Al51         O56   1.793       .  S
O52          C59   1.269       .  A
O52         Al60   1.934       .  S
O53          C62   1.260       .  A
O53         Al60   1.920       .  S
O54         Al60   1.881       .  S
O55          C62   1.265       .  A
O56         Al60   1.798       .  S
O57          C58   1.270       .  A
C59          N72   1.452   1_556  S
C63          O64   1.256       .  A
N65          C69   1.367       .  A
N65          C66   1.361       .  A
N65         C127   1.450       .  S
C66          C67   1.378       .  A
C66         C233   1.475       .  S
C67          C68   1.362       .  A
C67          H70   1.083       .  S
C68          C69   1.385       .  A
C68          H71   1.083       .  S
C69         C222   1.490       .  S
N72          C76   1.363       .  A
N72          C73   1.365       .  A
C73          C74   1.386       .  A
C73         C193   1.506       .  S
C74          C75   1.366       .  A
C74          H77   1.077       .  S
C75          C76   1.387       .  A
C75          H78   1.083       .  S
C76         C242   1.502       .  S
N79          C83   1.363       .  A
N79          C80   1.366       .  A
N79         C122   1.447       .  S
C80          C81   1.378   1_554  A
C80         C202   1.474       .  S
C81          C82   1.360       .  A
C81          H84   1.083       .  S
C82          C83   1.384   1_556  A
C82          H85   1.083       .  S
C83         C182   1.477       .  S
N86          C90   1.367       .  A
N86          C87   1.361       .  A
C87          C88   1.383       .  A
C87         C173   1.478       .  S
C88          C89   1.367       .  A
C88          H91   1.083       .  S
C89          C90   1.382       .  A
C89          H92   1.082       .  S
C90         C153   1.499       .  S
N93          C97   1.362       .  A
N93          C94   1.363   1_554  A
N93         C126   1.447       .  S
C94          C95   1.380       .  A
C94         C142   1.479   1_556  S
C95          C96   1.367       .  A
C95          H98   1.083       .  S
C96          C97   1.384   1_556  A
C96          H99   1.083       .  S
C97         C162   1.480       .  S
N100        C104   1.354       .  A
N100        C101   1.360       .  A
C101        C102   1.381       .  A
C101        C133   1.475       .  S
C102        C103   1.369       .  A
C102        H105   1.082       .  S
C103        C104   1.382       .  A
C103        H106   1.083       .  S
C104        C213   1.468       .  S
O107        C122   1.265       .  A
O107       Al115   1.912       .  S
C108        O118   1.255       .  A
C108        O109   1.256       .  A
O109       Al111   1.922       .  S
O110        C112   1.261       .  A
O110       Al111   1.914       .  S
Al111       O119   1.882       .  S
Al111       O121   1.929       .  S
Al111       O120   1.802       .  S
C112        O125   1.262       .  A
O113        C123   1.266       .  A
O113       Al115   1.881       .  S
O114        C127   1.256       .  A
O114       Al124   1.910       .  S
Al115       O128   1.909       .  S
Al115       O125   1.919       .  S
Al115       O120   1.795       .  S
O116        C123   1.269       .  A
O116       Al124   1.939       .  S
O117        C126   1.268       .  A
O117       Al124   1.941       .  S
O118       Al124   1.891       .  S
O119        C126   1.263       .  A
O120       Al124   1.798       .  S
O121        C122   1.265       .  A
C127        O128   1.256       .  A
C129        C130   1.403       .  A
C129        C134   1.397       .  A
C129        H139   1.083       .  S
C130        C131   1.404   1_554  A
C130        C135   1.482       .  S
C131        C132   1.393       .  A
C131        F136   1.349       .  S
C132        C133   1.400   1_556  A
C132        H137   1.083       .  S
C133        C134   1.404       .  A
C134        F138   1.357       .  S
C135        C140   1.406       .  A
C135        C144   1.404   1_554  A
C140        C141   1.394       .  A
C140        F145   1.353       .  S
C141        C142   1.401       .  A
C141        H146   1.084       .  S
C142        C143   1.406   1_554  A
C143        C144   1.397       .  A
C143        F147   1.357       .  S
C144        H148   1.082       .  S
C149        C150   1.406   1_556  A
C149        C154   1.399       .  A
C149        H159   1.082       .  S
C150        C151   1.416       .  A
C150        C155   1.507       .  S
C151        C152   1.412       .  A
C151        F156   1.357       .  S
C152        C153   1.408   1_554  A
C152        H157   1.083       .  S
C153        C154   1.408       .  A
C154        F158   1.354       .  S
C155        C528   1.415       .  A
C155        C532   1.406       .  A
C160        C161   1.399       .  A
C160        C523   1.409   1_546  A
C160        F533   1.357       .  S
C161        C162   1.404   1_556  A
C161        H166   1.084       .  S
C162        C163   1.406       .  A
C163        C164   1.405       .  A
C163        F167   1.358       .  S
C164        C523   1.409   1_545  A
C164        H536   1.083   1_545  S
F165        C528   1.357       .  S
H168        C532   1.082       .  S
C169        C170   1.410   1_554  A
C169        C910   1.392   1_554  A
C169        H179   1.079       .  S
C170        C171   1.419       .  A
C170        C175   1.504       .  S
C171        C172   1.401       .  A
C171        F176   1.357       .  S
C172        C909   1.398       .  A
C172        H177   1.084       .  S
C173        C174   1.403   1_556  A
C173        C908   1.402   1_455  A
C174        C905   1.395   1_455  A
C174        F178   1.358       .  S
C175        C180   1.419   1_556  A
C175        C184   1.409       .  A
C180        C181   1.402       .  A
C180        F185   1.356       .  S
C181        C182   1.401       .  A
C181        H186   1.083       .  S
C182        C183   1.404   1_554  A
C183        C184   1.391       .  A
C183        F187   1.359       .  S
C184        H188   1.079       .  S
C189        C190   1.396       .  A
C189        C194   1.397       .  A
C189        H199   1.084       .  S
C190        C191   1.406       .  A
C190        C195   1.483       .  S
C191        C192   1.401       .  A
C191        F196   1.358   1_554  S
C192        C193   1.411       .  A
C192        H197   1.082   1_554  S
C193        C194   1.418       .  A
C194        F198   1.352       .  S
C195        C200   1.409       .  A
C195        C204   1.398       .  A
C200        C201   1.404       .  A
C200        F205   1.357       .  S
C201        C202   1.403       .  A
C201        H206   1.084       .  S
C202        C203   1.405   1_554  A
C203        C204   1.392   1_556  A
C203        F207   1.358       .  S
C204        H208   1.079   1_554  S
C209        C210   1.414   1_554  A
C209        C950   1.407   1_554  A
C209        H219   1.082       .  S
C210        C211   1.413       .  A
C210        C215   1.510   1_556  S
C211        C212   1.398       .  A
C211        F216   1.357       .  S
C212        C949   1.406       .  A
C212        H217   1.083       .  S
C213        C214   1.401       .  A
C213        C948   1.402   1_454  A
C214        C945   1.395   1_455  A
C214        F218   1.358       .  S
C215        C220   1.414       .  A
C215        C224   1.413       .  A
C220        C221   1.400       .  A
C220        F225   1.356       .  S
C221        C222   1.406       .  A
C221        H226   1.084       .  S
C222        C223   1.405       .  A
C223        C224   1.404       .  A
C223        F227   1.357       .  S
C224        H228   1.082   1_554  S
C229        C230   1.411       .  A
C229        C602   1.397       .  A
C229        H239   1.083       .  S
C230        C599   1.408       .  A
C230        C235   1.491       .  S
C231        C232   1.401       .  A
C231        C598   1.404   1_545  A
C231        F236   1.358   1_544  S
C232        C233   1.406       .  A
C232        H237   1.084       .  S
C233        C234   1.402       .  A
C234        C597   1.399   1_545  A
C234        F238   1.356       .  S
C235        C240   1.405       .  A
C235        C244   1.408       .  A
C240        C241   1.388       .  A
C240        F245   1.358       .  S
C241        C242   1.411       .  A
C241        H246   1.082       .  S
C242        C243   1.411       .  A
C243        C244   1.406       .  A
C243        F247   1.351   1_554  S
C244        H248   1.082       .  S
C249        C250   1.411       .  A
C249        C254   1.400       .  A
C249        H259   1.082       .  S
C250        C251   1.412       .  A
C250        C255   1.498       .  S
C251        C252   1.399       .  A
C251        F256   1.357       .  S
C252        C253   1.401       .  A
C252        H257   1.084       .  S
C253        C254   1.400       .  A
C254        F258   1.355       .  S
C255        C260   1.412       .  A
C255        C264   1.411       .  A
C260        C261   1.398       .  A
C260        F265   1.357       .  S
C261        C262   1.403       .  A
C261        H266   1.084       .  S
C262        C263   1.401       .  A
C263        C264   1.402       .  A
C263        F267   1.356       .  S
C264        H268   1.082       .  S
C269        C270   1.404       .  A
C269        C274   1.401       .  A
C269        H279   1.082       .  S
C270        C271   1.413       .  A
C270        C275   1.490       .  S
C271        C272   1.402       .  A
C271        F276   1.358       .  S
C272        C273   1.400       .  A
C272        H277   1.084       .  S
C273        C274   1.405       .  A
C274        F278   1.357       .  S
C275        C280   1.404       .  A
C275        C284   1.408       .  A
C280        C281   1.395       .  A
C280        F285   1.358       .  S
C281       C1018   1.408       .  A
C281       H1022   1.084       .  S
C282       C1017   1.405       .  A
C282       C1019   1.398       .  A
C283        C284   1.403       .  A
C283       C1018   1.406       .  A
C283        F287   1.352       .  S
C284        H288   1.083       .  S
H286       C1017   1.084       .  S
C289        C294   1.395       .  A
C289        C658   1.406       .  A
C289        H667   1.082       .  S
C290        C291   1.412       .  A
C290        C657   1.405       .  A
C290        C295   1.499       .  S
C291        C660   1.403       .  A
C291        F296   1.354       .  S
C292        C293   1.406       .  A
C292        C659   1.400       .  A
C292        H297   1.080       .  S
C293        C294   1.410       .  A
C294        F298   1.358       .  S
C295        C300   1.411       .  A
C295        C304   1.413       .  A
H299        C657   1.082       .  S
C300        C301   1.398       .  A
C300        F305   1.356       .  S
C301        C302   1.402       .  A
C301        H306   1.084       .  S
C302        C303   1.401       .  A
C303        C304   1.400       .  A
C303        F307   1.356       .  S
C304        H308   1.083       .  S
C309        C310   1.404       .  A
C309        C314   1.395       .  A
C309        H319   1.074       .  S
C310        C311   1.406       .  A
C310        C315   1.482       .  S
C311        C312   1.396       .  A
C311        F316   1.358       .  S
C312        C313   1.402       .  A
C312        H317   1.084       .  S
C313        C314   1.395       .  A
C314        F318   1.354       .  S
C315        C320   1.403       .  A
C315        C324   1.408       .  A
C320       C1057   1.395       .  A
C320        F325   1.357       .  S
C321        C322   1.404   1_655  A
C321       C1056   1.389       .  A
C321        H326   1.084   1_655  S
C322       C1059   1.401       .  A
C323        C324   1.397       .  A
C323       C1058   1.405       .  A
C323        F327   1.357       .  S
C324        H328   1.083       .  S
C329        C330   1.404       .  A
C329        C702   1.402       .  A
C329        H339   1.082       .  S
C330        C699   1.402       .  A
C330        C335   1.476       .  S
C331        C332   1.391       .  A
C331        C698   1.406   1_545  A
C331        F336   1.357       .  S
C332        C333   1.400       .  A
C332        H337   1.084       .  S
C333        C334   1.403       .  A
C334        C697   1.400       .  A
C334        F338   1.357       .  S
C335        C340   1.401       .  A
C335        C344   1.402       .  A
C340        C341   1.393       .  A
C340        F345   1.355       .  S
C341        C342   1.406       .  A
C341        H346   1.083       .  S
C342        C343   1.410       .  A
C343        C344   1.401       .  A
C343        F347   1.357       .  S
C344        H348   1.082       .  S
C349        C350   1.403       .  A
C349        C354   1.397       .  A
C349        H359   1.083       .  S
C350        C351   1.412       .  A
C350        C355   1.493       .  S
C351        C352   1.403       .  A
C351        F356   1.356       .  S
C352        C353   1.404       .  A
C352        H357   1.083       .  S
C353        C354   1.407       .  A
C354        F358   1.354       .  S
C355        C360   1.413       .  A
C355        C364   1.401       .  A
C360        C361   1.406       .  A
C360        F365   1.357       .  S
C361        C362   1.404       .  A
C361        H366   1.083       .  S
C362        C363   1.411       .  A
C363        C364   1.394       .  A
C363        F367   1.358       .  S
C364        H368   1.083       .  S
N369        C373   1.365       .  A
N369        C370   1.363       .  A
N369        C476   1.448       .  S
C370        C371   1.384       .  A
C370        C721   1.475       .  S
C371        C372   1.362       .  A
C371        H374   1.083       .  S
C372        C373   1.378       .  A
C372        H375   1.083       .  S
C373        C701   1.475       .  S
N376        C380   1.367       .  A
N376        C377   1.363       .  A
N376        C430   1.450       .  S
C377        C378   1.385       .  A
C377        C730   1.481       .  S
C378        C379   1.362       .  A
C378        H381   1.083       .  S
C379        C380   1.380       .  A
C379        H382   1.083       .  S
C380        C690   1.481       .  S
N383        C387   1.358       .  A
N383        C384   1.359       .  A
N383        C491   1.447       .  S
C384        C385   1.385       .  A
C384        C661   1.497       .  S
C385        C386   1.370       .  A
C385        H388   1.082       .  S
C386        C387   1.384       .  A
C386        H389   1.083       .  S
C387        C681   1.482       .  S
N390        C394   1.371       .  A
N390        C391   1.364       .  A
N390        C480   1.454       .  S
C391        C392   1.382       .  A
C391        C630   1.470       .  S
C392        C393   1.357       .  A
C392        H395   1.083       .  S
C393        C394   1.379       .  A
C393        H396   1.083       .  S
C394        C641   1.477       .  S
N397        C401   1.359       .  A
N397        C398   1.359       .  A
N397        C431   1.441       .  S
C398        C399   1.380       .  A
C398        C621   1.476       .  S
C399        C400   1.368       .  A
C399        H402   1.083       .  S
C400        C401   1.383       .  A
C400        H403   1.083       .  S
C401        C670   1.477       .  S
N404        C408   1.360       .  A
N404        C405   1.365       .  A
N404        C426   1.446       .  S
C405        C406   1.388       .  A
C405        C650   1.504       .  S
C406        C407   1.369       .  A
C406        H409   1.083       .  S
C407        C408   1.382       .  A
C407        H410   1.082       .  S
C408        C710   1.487       .  S
O411        C426   1.265       .  A
O411       Al419   1.920       .  S
C412        N468   1.447       .  S
C412        O422   1.254       .  A
C412        O413   1.262       .  A
O413       Al415   1.934       .  S
O414        C416   1.262       .  A
O414       Al415   1.919       .  S
Al415       O423   1.925       .  S
Al415       O425   1.885       .  S
Al415       O424   1.791       .  S
C416        N454   1.447       .  S
C416        O429   1.254       .  A
O417        C427   1.271       .  A
O417       Al419   1.936       .  S
O418        C431   1.249       .  A
O418       Al428   1.882       .  S
Al419       O432   1.909       .  S
Al419       O429   1.892       .  S
Al419       O424   1.796       .  S
O420        C427   1.273       .  A
O420       Al428   1.900       .  S
O421        C430   1.272       .  A
O421       Al428   1.923       .  S
O422       Al428   1.894       .  S
O423        C430   1.269       .  A
O424       Al428   1.789       .  S
O425        C426   1.256       .  A
C427        N440   1.446   1_556  S
C431        O432   1.251       .  A
N433        C437   1.359       .  A
N433        C434   1.356       .  A
N433        C495   1.439       .  S
C434        C435   1.379       .  A
C434        C601   1.472       .  S
C435        C436   1.366       .  A
C435        H438   1.082       .  S
C436        C437   1.384       .  A
C436        H439   1.083       .  S
C437        C590   1.479       .  S
N440        C444   1.362       .  A
N440        C441   1.357       .  A
C441        C442   1.383       .  A
C441        C561   1.492       .  S
C442        C443   1.370       .  A
C442        H445   1.081       .  S
C443        C444   1.387       .  A
C443        H446   1.083       .  S
C444        C610   1.493       .  S
N447        C451   1.363       .  A
N447        C448   1.363       .  A
N447        C490   1.447       .  S
C448        C449   1.379       .  A
C448        C570   1.474       .  S
C449        C450   1.362       .  A
C449        H452   1.083       .  S
C450        C451   1.383       .  A
C450        H453   1.083       .  S
C451        C550   1.476       .  S
N454        C458   1.366       .  A
N454        C455   1.361       .  A
C455        C456   1.384       .  A
C455        C541   1.478       .  S
C456        C457   1.365       .  A
C456        H459   1.083   1_455  S
C457        C458   1.378       .  A
C457        H460   1.083       .  S
C458        C521   1.481       .  S
N461        C465   1.372       .  A
N461        C462   1.364       .  A
N461        C494   1.449       .  S
C462        C463   1.379       .  A
C462        C510   1.475       .  S
C463        C464   1.358       .  A
C463        H466   1.083       .  S
C464        C465   1.382       .  A
C464        H467   1.083       .  S
C465        C530   1.486       .  S
N468        C472   1.365       .  A
N468        C469   1.367       .  A
C469        C470   1.378       .  A
C469        C501   1.488       .  S
C470        C471   1.364       .  A
C470        H473   1.083       .  S
C471        C472   1.387       .  A
C471        H474   1.082   1_455  S
C472        C581   1.490   1_455  S
O475        C490   1.265       .  A
O475       Al483   1.921       .  S
C476        O486   1.257       .  A
C476        O477   1.263       .  A
O477       Al479   1.932       .  S
O478        C480   1.270       .  A
O478       Al479   1.961       .  S
Al479       O487   1.962       .  S
Al479       O489   1.913       .  S
Al479       O488   1.783       .  S
C480        O493   1.257       .  A
O481        C491   1.268       .  A
O481       Al483   1.946       .  S
O482        C495   1.259       .  A
O482       Al492   1.904       .  S
Al483       O496   1.904       .  S
Al483       O493   1.895       .  S
Al483       O488   1.787       .  S
O484        C491   1.263       .  A
O484       Al492   1.890       .  S
O485        C494   1.264       .  A
O485       Al492   1.901       .  S
O486       Al492   1.904       .  S
O487        C494   1.278       .  A
O488       Al492   1.791       .  S
O489        C490   1.264       .  A
C495        O496   1.256       .  A
C497        C498   1.409       .  A
C497        C502   1.396       .  A
C497        H507   1.080       .  S
C498        C499   1.421   1_554  A
C498        C503   1.512       .  S
C499        C500   1.406       .  A
C499        F504   1.355       .  S
C500        C501   1.402       .  A
C500        H505   1.082       .  S
C501        C502   1.405   1_556  A
C502        F506   1.358       .  S
C503        C508   1.422       .  A
C503        C512   1.410       .  A
C508        C509   1.400       .  A
C508        F513   1.354       .  S
C509        C510   1.396       .  A
C509        H514   1.082       .  S
C510        C511   1.404       .  A
C511        C512   1.397       .  A
C511        F515   1.358   1_554  S
C512        H516   1.080   1_554  S
C517        C518   1.409       .  A
C517        C522   1.400       .  A
C517        H527   1.083       .  S
C518        C519   1.410   1_556  A
C518        C523   1.496   1_556  S
C519        C520   1.406       .  A
C519        F524   1.357       .  S
C520        C521   1.406   1_554  A
C520        H525   1.083       .  S
C521        C522   1.403       .  A
C522        F526   1.357       .  S
C528        C529   1.408       .  A
C529        C530   1.404       .  A
C529        H534   1.083       .  S
C530        C531   1.410       .  A
C531        C532   1.402       .  A
C531        F535   1.356       .  S
C537        C538   1.411       .  A
C537       C1278   1.398       .  A
C537        H547   1.080       .  S
C538        C539   1.421   1_554  A
C538        C543   1.511       .  S
C539        C540   1.404       .  A
C539        F544   1.356       .  S
C540       C1277   1.401       .  A
C540        H545   1.084       .  S
C541       C1276   1.400   1_455  A
C541        C542   1.403   1_456  A
C542       C1273   1.393       .  A
C542        F546   1.359   1_655  S
C543        C548   1.420       .  A
C543        C552   1.410       .  A
C548        C549   1.405       .  A
C548        F553   1.356       .  S
C549        C550   1.400       .  A
C549        H554   1.082       .  S
C550        C551   1.403       .  A
C551        C552   1.395       .  A
C551        F555   1.358   1_554  S
C552        H556   1.079   1_554  S
C557        C558   1.401       .  A
C557        C562   1.394       .  A
C557        H567   1.075       .  S
C558        C559   1.408       .  A
C558        C563   1.487       .  S
C559        C560   1.399       .  A
C559        F564   1.358   1_554  S
C560        C561   1.409       .  A
C560        H565   1.082   1_554  S
C561        C562   1.407       .  A
C562        F566   1.356       .  S
C563        C568   1.410       .  A
C563        C572   1.403       .  A
C568        C569   1.402       .  A
C568        F573   1.357       .  S
C569        C570   1.399       .  A
C569        H574   1.080       .  S
C570        C571   1.406       .  A
C571        C572   1.395       .  A
C571        F575   1.358   1_554  S
C572        H576   1.081   1_554  S
C577        C578   1.409       .  A
C577       C1318   1.401       .  A
C577        H587   1.083       .  S
C578        C579   1.412       .  A
C578        C583   1.498       .  S
C579        C580   1.397   1_554  A
C579        F584   1.357   1_554  S
C580       C1317   1.402   1_556  A
C580        H585   1.083       .  S
C581       C1316   1.407       .  A
C581        C582   1.407   1_655  A
C582       C1313   1.405   1_456  A
C582        F586   1.356   1_556  S
C583        C588   1.413       .  A
C583        C592   1.409       .  A
C588        C589   1.397       .  A
C588        F593   1.357       .  S
C589        C590   1.402       .  A
C589        H594   1.083       .  S
C590        C591   1.405       .  A
C591        C592   1.401       .  A
C591        F595   1.358       .  S
C592        H596   1.081       .  S
C597        C598   1.406       .  A
C597        H607   1.084       .  S
C598        C603   1.482       .  S
C599        C600   1.397       .  A
C599        F604   1.357       .  S
C600        C601   1.403       .  A
C600        H605   1.084       .  S
C601        C602   1.400       .  A
C602        F606   1.356       .  S
C603        C608   1.403       .  A
C603        C612   1.401       .  A
C608        C609   1.395       .  A
C608        F613   1.358       .  S
C609        C610   1.410       .  A
C609        H614   1.084       .  S
C610        C611   1.406       .  A
C611        C612   1.403       .  A
C611        F615   1.348   1_554  S
C612        H616   1.080   1_554  S
C617        C618   1.414       .  A
C617        C622   1.403       .  A
C617        H627   1.078       .  S
C618        C619   1.414       .  A
C618        C623   1.505       .  S
C619        C620   1.395       .  A
C619        F624   1.357       .  S
C620        C621   1.400       .  A
C620        H625   1.084       .  S
C621        C622   1.401       .  A
C622        F626   1.357       .  S
C623        C628   1.413       .  A
C623        C632   1.412       .  A
C628        C629   1.398       .  A
C628        F633   1.357       .  S
C629        C630   1.403       .  A
C629        H634   1.084       .  S
C630        C631   1.400       .  A
C631        C632   1.400       .  A
C631        F635   1.355       .  S
C632        H636   1.081       .  S
C637        C638   1.402       .  A
C637        C642   1.396       .  A
C637        H647   1.083       .  S
C638        C639   1.409       .  A
C638        C643   1.485       .  S
C639        C640   1.404       .  A
C639        F644   1.355       .  S
C640        C641   1.403       .  A
C640        H645   1.082       .  S
C641        C642   1.409       .  A
C642        F646   1.358       .  S
C643        C648   1.408       .  A
C643        C652   1.404       .  A
C648        C649   1.398       .  A
C648        F653   1.358       .  S
C649       C1386   1.406       .  A
C649       H1390   1.083       .  S
C650       C1385   1.412       .  A
C650       C1387   1.411       .  A
C651       C1386   1.407       .  A
C651        C652   1.397       .  A
C651        F655   1.357       .  S
C652        H656   1.081       .  S
H654       C1385   1.083       .  S
C657        C662   1.394       .  A
C658        C659   1.412       .  A
C658        C663   1.498   1_545  S
C659        F664   1.355       .  S
C660        C661   1.406       .  A
C660        H665   1.077       .  S
C661        C662   1.413       .  A
C662        F666   1.357       .  S
C663        C668   1.412       .  A
C663        C672   1.413       .  A
C668        C669   1.393       .  A
C668        F673   1.356       .  S
C669        C670   1.401       .  A
C669        H674   1.084       .  S
C670        C671   1.401       .  A
C671        C672   1.402       .  A
C671        F675   1.355       .  S
C672        H676   1.082       .  S
C677        C678   1.402       .  A
C677        C682   1.392       .  A
C677        H687   1.073       .  S
C678        C679   1.409       .  A
C678        C683   1.487       .  S
C679        C680   1.396       .  A
C679        F684   1.357       .  S
C680        C681   1.407       .  A
C680        H685   1.083       .  S
C681        C682   1.399       .  A
C682        F686   1.347       .  S
C683        C688   1.410       .  A
C683        C692   1.407       .  A
C688       C1425   1.393       .  A
C688        F693   1.357       .  S
C689       C1424   1.396   1_455  A
C689        C690   1.407       .  A
C689        H694   1.083       .  S
C690       C1427   1.406       .  A
C691       C1426   1.400       .  A
C691        C692   1.396       .  A
C691        F695   1.355       .  S
C692        H696   1.081       .  S
C697        C698   1.407   1_545  A
C697        H707   1.083   1_545  S
C698        C703   1.481       .  S
C699        C700   1.393       .  A
C699        F704   1.356       .  S
C700        C701   1.402       .  A
C700        H705   1.084       .  S
C701        C702   1.405       .  A
C702        F706   1.357       .  S
C703        C708   1.407       .  A
C703        C712   1.404       .  A
C708        C709   1.391       .  A
C708        F713   1.358       .  S
C709        C710   1.403       .  A
C709        H714   1.083       .  S
C710        C711   1.411       .  A
C711        C712   1.400       .  A
C711        F715   1.357       .  S
C712        H716   1.082       .  S
C717        C718   1.410       .  A
C717        C722   1.401       .  A
C717        H727   1.083       .  S
C718        C719   1.404       .  A
C718        C723   1.486       .  S
C719        C720   1.392       .  A
C719        F724   1.356       .  S
C720        C721   1.404       .  A
C720        H725   1.084       .  S
C721        C722   1.403       .  A
C722        F726   1.356       .  S
C723        C728   1.404       .  A
C723        C732   1.409       .  A
C728        C729   1.393       .  A
C728        F733   1.356       .  S
C729        C730   1.406       .  A
C729        H734   1.084       .  S
C730        C731   1.406       .  A
C731        C732   1.400       .  A
C731        F735   1.357       .  S
C732        H736   1.083       .  S
N737        C741   1.357       .  A
N737        C738   1.359       .  A
N737        C844   1.443       .  S
C738        C739   1.382       .  A
C738       C1089   1.469       .  S
C739        C740   1.365       .  A
C739        H742   1.083       .  S
C740        C741   1.380       .  A
C740        H743   1.083       .  S
C741       C1069   1.468       .  S
N744        C748   1.367       .  A
N744        C745   1.365       .  A
N744        C798   1.454       .  S
C745        C746   1.386       .  A
C745       C1098   1.482       .  S
C746        C747   1.359       .  A
C746        H749   1.083       .  S
C747        C748   1.380       .  A
C747        H750   1.082       .  S
C748       C1058   1.482       .  S
N751        C755   1.358       .  A
N751        C752   1.359       .  A
N751        C859   1.447       .  S
C752        C753   1.386       .  A
C752       C1029   1.496       .  S
C753        C754   1.369       .  A
C753        H756   1.081       .  S
C754        C755   1.383       .  A
C754        H757   1.082       .  S
C755       C1049   1.482       .  S
N758        C762   1.377       .  A
N758        C759   1.370       .  A
N758        C848   1.458       .  S
C759        C760   1.385       .  A
C759        C998   1.485       .  S
C760        C761   1.353       .  A
C760        H763   1.083       .  S
C761        C762   1.379       .  A
C761        H764   1.083       .  S
C762       C1009   1.488       .  S
N765        C769   1.366       .  A
N765        C766   1.362       .  A
N765        C799   1.446       .  S
C766        C767   1.381       .  A
C766        C989   1.482       .  S
C767        C768   1.366       .  A
C767        H770   1.083       .  S
C768        C769   1.382       .  A
C768        H771   1.083       .  S
C769       C1038   1.489       .  S
N772        C776   1.354       .  A
N772        C773   1.358       .  A
N772        C794   1.443       .  S
C773        C774   1.389       .  A
C773       C1018   1.491       .  S
C774        C775   1.375       .  A
C774        H777   1.083       .  S
C775        C776   1.381       .  A
C775        H778   1.082       .  S
C776       C1078   1.483       .  S
O779        C794   1.269       .  A
O779       Al787   1.900       .  S
C780        N836   1.450       .  S
C780        O790   1.251       .  A
C780        O781   1.259       .  A
O781       Al783   1.917       .  S
O782        C784   1.267       .  A
O782       Al783   1.936       .  S
Al783       O791   1.902       .  S
Al783       O793   1.930       .  S
Al783       O792   1.793       .  S
C784        N822   1.445       .  S
C784        O797   1.257       .  A
O785        C795   1.264       .  A
O785       Al787   1.890       .  S
O786        C799   1.249       .  A
O786       Al796   1.906       .  S
Al787       O800   1.888       .  S
Al787       O797   1.902       .  S
Al787       O792   1.783       .  S
O788        C795   1.278       .  A
O788       Al796   1.956       .  S
O789        C798   1.270       .  A
O789       Al796   1.940       .  S
O790       Al796   1.894       .  S
O791        C798   1.264       .  A
O792       Al796   1.790       .  S
O793        C794   1.264       .  A
C795        N808   1.451   1_556  S
C799        O800   1.247       .  A
N801        C805   1.359       .  A
N801        C802   1.359       .  A
N801        C863   1.442       .  S
C802        C803   1.379       .  A
C802        C969   1.471       .  S
C803        C804   1.365       .  A
C803        H806   1.083       .  S
C804        C805   1.384       .  A
C804        H807   1.083       .  S
C805        C958   1.474       .  S
N808        C812   1.371       .  A
N808        C809   1.364       .  A
C809        C810   1.381       .  A
C809        C929   1.496       .  S
C810        C811   1.369       .  A
C810        H813   1.082       .  S
C811        C812   1.388       .  A
C811        H814   1.083       .  S
C812        C978   1.510       .  S
N815        C819   1.359       .  A
N815        C816   1.363       .  A
N815        C858   1.442       .  S
C816        C817   1.381       .  A
C816        C938   1.483       .  S
C817        C818   1.369       .  A
C817        H820   1.082       .  S
C818        C819   1.382       .  A
C818        H821   1.083       .  S
C819        C918   1.476       .  S
N822        C826   1.366       .  A
N822        C823   1.355       .  A
C823        C824   1.383       .  A
C823        C909   1.470       .  S
C824        C825   1.367       .  A
C824        H827   1.083       .  S
C825        C826   1.380       .  A
C825        H828   1.083       .  S
C826        C889   1.487       .  S
N829        C833   1.373       .  A
N829        C830   1.371       .  A
N829        C862   1.455       .  S
C830        C831   1.389   1_554  A
C830        C878   1.502       .  S
C831        C832   1.356       .  A
C831        H834   1.080       .  S
C832        C833   1.379   1_556  A
C832        H835   1.083       .  S
C833        C898   1.499       .  S
N836        C840   1.366       .  A
N836        C837   1.371       .  A
C837        C838   1.382       .  A
C837        C869   1.498       .  S
C838        C839   1.363       .  A
C838        H841   1.083       .  S
C839        C840   1.384       .  A
C839        H842   1.082       .  S
C840        C949   1.496       .  S
O843        C858   1.260       .  A
O843       Al851   1.909       .  S
C844        O854   1.249       .  A
C844        O845   1.250       .  A
O845       Al847   1.911       .  S
O846        C848   1.274       .  A
O846       Al847   1.959       .  S
Al847       O855   1.976       .  S
Al847       O857   1.886       .  S
Al847       O856   1.784       .  S
C848        O861   1.259       .  A
O849        C859   1.269       .  A
O849       Al851   1.942       .  S
O850        C863   1.257       .  A
O850       Al860   1.909       .  S
Al851       O864   1.913       .  S
Al851       O861   1.898       .  S
Al851       O856   1.790       .  S
O852        C859   1.269       .  A
O852       Al860   1.905       .  S
O853        C862   1.271       .  A
O853       Al860   1.892       .  S
O854       Al860   1.886       .  S
O855        C862   1.285       .  A
O856       Al860   1.793       .  S
O857        C858   1.253       .  A
C863        O864   1.257       .  A
C865        C866   1.410   1_554  A
C865        C870   1.395   1_554  A
C865        H875   1.078       .  S
C866        C867   1.422       .  A
C866        C871   1.519   1_556  S
C867        C868   1.406       .  A
C867        F872   1.355       .  S
C868        C869   1.402       .  A
C868        H873   1.076       .  S
C869        C870   1.408       .  A
C870        F874   1.358   1_556  S
C871        C876   1.422       .  A
C871        C880   1.409   1_554  A
C876        C877   1.405       .  A
C876        F881   1.356       .  S
C877        C878   1.404       .  A
C877        H882   1.081       .  S
C878        C879   1.412   1_554  A
C879        C880   1.395       .  A
C879        F883   1.358       .  S
C880        H884   1.077       .  S
C885        C886   1.410       .  A
C885        C890   1.403       .  A
C885        H895   1.082       .  S
C886        C887   1.413   1_556  A
C886        C891   1.505   1_556  S
C887        C888   1.408   1_554  A
C887        F892   1.357       .  S
C888        C889   1.406       .  A
C888        H893   1.083   1_556  S
C889        C890   1.404       .  A
C890        F894   1.357       .  S
C891       C1264   1.412   1_554  A
C891       C1268   1.407       .  A
C896       C1259   1.407   1_546  A
C896        C897   1.398   1_556  A
C896       F1269   1.357   1_545  S
C897        C898   1.408       .  A
C897        H902   1.084   1_554  S
C898        C899   1.410       .  A
C899        C900   1.413       .  A
C899        F903   1.357       .  S
C900       C1259   1.411   1_545  A
C900       H1272   1.083   1_545  S
F901       C1264   1.357       .  S
H904       C1268   1.082       .  S
C905        C906   1.410       .  A
C905        H915   1.081       .  S
C906        C907   1.419   1_554  A
C906        C911   1.506       .  S
C907        C908   1.405       .  A
C907        F912   1.356       .  S
C908        H913   1.084       .  S
C909        C910   1.401       .  A
C910        F914   1.358   1_556  S
C911        C916   1.418       .  A
C911        C920   1.410       .  A
C916        C917   1.402       .  A
C916        F921   1.357       .  S
C917        C918   1.399       .  A
C917        H922   1.082       .  S
C918        C919   1.402       .  A
C919        C920   1.399       .  A
C919        F923   1.358       .  S
C920        H924   1.080   1_554  S
C925        C926   1.405       .  A
C925        C930   1.404       .  A
C925        H935   1.083       .  S
C926        C927   1.410       .  A
C926        C931   1.495       .  S
C927        C928   1.401       .  A
C927        F932   1.357   1_554  S
C928        C929   1.405       .  A
C928        H933   1.083   1_554  S
C929        C930   1.412       .  A
C930        F934   1.357       .  S
C931        C936   1.411       .  A
C931        C940   1.405       .  A
C936        C937   1.405       .  A
C936        F941   1.357       .  S
C937        C938   1.402       .  A
C937        H942   1.078       .  S
C938        C939   1.405       .  A
C939        C940   1.399       .  A
C939        F943   1.358   1_554  S
C940        H944   1.083   1_554  S
C945        C946   1.405       .  A
C945        H955   1.082       .  S
C946        C947   1.409   1_554  A
C946        C951   1.486       .  S
C947        C948   1.398       .  A
C947        F952   1.357       .  S
C948        H953   1.083       .  S
C949        C950   1.407       .  A
C950        F954   1.357       .  S
C951        C956   1.410       .  A
C951        C960   1.406       .  A
C956        C957   1.393       .  A
C956        F961   1.358       .  S
C957        C958   1.401       .  A
C957        H962   1.084       .  S
C958        C959   1.406       .  A
C959        C960   1.402       .  A
C959        F963   1.357       .  S
C960        H964   1.083       .  S
C965        C966   1.409       .  A
C965       C1338   1.403       .  A
C965        H975   1.083       .  S
C966       C1335   1.407       .  A
C966        C971   1.492       .  S
C967       C1334   1.405   1_545  A
C967        C968   1.396       .  A
C967        F972   1.357   1_545  S
C968        C969   1.404       .  A
C968        H973   1.084       .  S
C969        C970   1.402       .  A
C970       C1333   1.398   1_545  A
C970        F974   1.357       .  S
C971        C976   1.404       .  A
C971        C980   1.403       .  A
C976        C977   1.398       .  A
C976        F981   1.358       .  S
C977        C978   1.413       .  A
C977        H982   1.083       .  S
C978        C979   1.414   1_554  A
C979        C980   1.406   1_556  A
C979        F983   1.348       .  S
C980        H984   1.082   1_554  S
C985        C986   1.415       .  A
C985        C990   1.401       .  A
C985        H995   1.080       .  S
C986        C987   1.415       .  A
C986        C991   1.509       .  S
C987        C988   1.397       .  A
C987        F992   1.356       .  S
C988        C989   1.403       .  A
C988        H993   1.084       .  S
C989        C990   1.400       .  A
C990        F994   1.354       .  S
C991        C996   1.414       .  A
C991       C1000   1.415       .  A
C996        C997   1.393       .  A
C996       F1001   1.357       .  S
C997        C998   1.404       .  A
C997       H1002   1.084       .  S
C998        C999   1.402       .  A
C999       C1000   1.404       .  A
C999       F1003   1.354       .  S
C1000      H1004   1.080       .  S
C1005      C1006   1.397       .  A
C1005      C1010   1.396       .  A
C1005      H1015   1.083       .  S
C1006      C1007   1.409       .  A
C1006      C1011   1.484       .  S
C1007      C1008   1.409       .  A
C1007      F1012   1.357       .  S
C1008      C1009   1.406       .  A
C1008      H1013   1.083       .  S
C1009      C1010   1.413       .  A
C1010      F1014   1.357       .  S
C1011      C1016   1.405       .  A
C1011      C1020   1.404       .  A
C1016      C1017   1.401   1_655  A
C1016      F1021   1.357       .  S
C1019      C1020   1.398   1_455  A
C1019      F1023   1.356       .  S
C1020      H1024   1.074       .  S
C1025      C1394   1.405   1_545  A
C1025      C1030   1.395       .  A
C1025      H1403   1.082       .  S
C1026      C1393   1.408       .  A
C1026      C1027   1.415       .  A
C1026      C1031   1.507       .  S
C1027      C1396   1.405       .  A
C1027      F1032   1.356       .  S
C1028      C1395   1.399       .  A
C1028      C1029   1.405       .  A
C1028      H1033   1.077       .  S
C1029      C1030   1.416       .  A
C1030      F1034   1.356       .  S
C1031      C1036   1.414       .  A
C1031      C1040   1.414       .  A
H1035      C1393   1.080       .  S
C1036      C1037   1.398       .  A
C1036      F1041   1.356       .  S
C1037      C1038   1.405       .  A
C1037      H1042   1.084       .  S
C1038      C1039   1.403       .  A
C1039      C1040   1.400       .  A
C1039      F1043   1.354       .  S
C1040      H1044   1.080       .  S
C1045      C1046   1.401       .  A
C1045      C1050   1.386       .  A
C1045      H1055   1.079       .  S
C1046      C1047   1.407       .  A
C1046      C1051   1.481       .  S
C1047      C1048   1.397       .  A
C1047      F1052   1.357       .  S
C1048      C1049   1.407       .  A
C1048      H1053   1.083       .  S
C1049      C1050   1.403       .  A
C1050      F1054   1.345       .  S
C1051      C1056   1.406       .  A
C1051      C1060   1.408       .  A
C1056      F1061   1.358       .  S
C1057      C1058   1.409       .  A
C1057      H1062   1.082       .  S
C1059      C1060   1.399   1_455  A
C1059      F1063   1.354       .  S
C1060      H1064   1.083       .  S
C1065      C1066   1.406       .  A
C1065      C1438   1.401       .  A
C1065      H1075   1.084       .  S
C1066      C1435   1.404       .  A
C1066      C1071   1.475       .  S
C1067      C1434   1.406       .  A
C1067      C1068   1.390   1_565  A
C1067      F1072   1.358       .  S
C1068      C1069   1.400       .  A
C1068      H1073   1.084       .  S
C1069      C1070   1.403       .  A
C1070      C1433   1.399   1_545  A
C1070      F1074   1.357       .  S
C1071      C1076   1.404       .  A
C1071      C1080   1.405       .  A
C1076      C1077   1.385       .  A
C1076      F1081   1.358       .  S
C1077      C1078   1.404       .  A
C1077      H1082   1.083       .  S
C1078      C1079   1.409       .  A
C1079      C1080   1.403       .  A
C1079      F1083   1.357       .  S
C1080      H1084   1.083       .  S
C1085      C1086   1.410       .  A
C1085      C1090   1.400       .  A
C1085      H1095   1.083       .  S
C1086      C1087   1.405       .  A
C1086      C1091   1.485       .  S
C1087      C1088   1.393       .  A
C1087      F1092   1.357       .  S
C1088      C1089   1.404       .  A
C1088      H1093   1.084       .  S
C1089      C1090   1.400       .  A
C1090      F1094   1.357       .  S
C1091      C1096   1.403       .  A
C1091      C1100   1.409       .  A
C1096      C1097   1.393       .  A
C1096      F1101   1.356       .  S
C1097      C1098   1.407       .  A
C1097      H1102   1.084       .  S
C1098      C1099   1.407       .  A
C1099      C1100   1.401       .  A
C1099      F1103   1.357       .  S
C1100      H1104   1.083       .  S
N1105      C1109   1.362       .  A
N1105      C1106   1.365       .  A
N1105      C1212   1.448       .  S
C1106      C1107   1.384       .  A
C1106      C1457   1.476       .  S
C1107      C1108   1.362       .  A
C1107      H1110   1.083       .  S
C1108      C1109   1.377       .  A
C1108      H1111   1.083       .  S
C1109      C1437   1.471       .  S
N1112      C1116   1.362       .  A
N1112      C1113   1.366       .  A
N1112      C1166   1.448       .  S
C1113      C1114   1.384       .  A
C1113      C1466   1.479       .  S
C1114      C1115   1.363       .  A
C1114      H1117   1.083       .  S
C1115      C1116   1.377       .  A
C1115      H1118   1.082       .  S
C1116      C1426   1.471       .  S
N1119      C1123   1.351       .  A
N1119      C1120   1.361       .  A
N1119      C1227   1.443       .  S
C1120      C1121   1.390       .  A
C1120      C1397   1.493       .  S
C1121      C1122   1.367       .  A
C1121      H1124   1.082       .  S
C1122      C1123   1.377       .  A
C1122      H1125   1.083       .  S
C1123      C1417   1.464       .  S
N1126      C1130   1.366       .  A
N1126      C1127   1.366       .  A
N1126      C1216   1.451       .  S
C1127      C1128   1.384       .  A
C1127      C1366   1.484       .  S
C1128      C1129   1.366       .  A
C1128      H1131   1.083       .  S
C1129      C1130   1.378       .  A
C1129      H1132   1.083       .  S
C1130      C1377   1.484       .  S
N1133      C1137   1.363       .  A
N1133      C1134   1.363       .  A
N1133      C1167   1.447       .  S
C1134      C1135   1.384       .  A
C1134      C1357   1.484       .  S
C1135      C1136   1.367       .  A
C1135      H1138   1.083       .  S
C1136      C1137   1.378       .  A
C1136      H1139   1.082       .  S
C1137      C1406   1.481       .  S
N1140      C1144   1.358       .  A
N1140      C1141   1.359       .  A
N1140      C1162   1.446       .  S
C1141      C1142   1.383       .  A
C1141      C1386   1.484       .  S
C1142      C1143   1.371       .  A
C1142      H1145   1.082       .  S
C1143      C1144   1.385       .  A
C1143      H1146   1.082       .  S
C1144      C1446   1.481       .  S
O1147      C1162   1.267       .  A
O1147     Al1155   1.902       .  S
C1148      N1204   1.447   1_556  S
C1148      O1158   1.262       .  A
C1148      O1149   1.263       .  A
O1149     Al1151   1.917       .  S
O1150      C1152   1.260       .  A
O1150     Al1151   1.924       .  S
Al1151     O1159   1.912       .  S
Al1151     O1161   1.922       .  S
Al1151     O1160   1.787       .  S
C1152      N1190   1.453       .  S
C1152      O1165   1.260       .  A
O1153      C1163   1.267       .  A
O1153     Al1155   1.919       .  S
O1154      C1167   1.261       .  A
O1154     Al1164   1.919       .  S
Al1155     O1168   1.914       .  S
Al1155     O1165   1.920       .  S
Al1155     O1160   1.787       .  S
O1156      C1163   1.263       .  A
O1156     Al1164   1.911       .  S
O1157      C1166   1.257       .  A
O1157     Al1164   1.914       .  S
O1158     Al1164   1.910       .  S
O1159      C1166   1.261       .  A
O1160     Al1164   1.794       .  S
O1161      C1162   1.268       .  A
C1163      N1176   1.447   1_556  S
C1167      O1168   1.261       .  A
N1169      C1173   1.364       .  A
N1169      C1170   1.362       .  A
N1169      C1231   1.447       .  S
C1170      C1171   1.380       .  A
C1170      C1337   1.481       .  S
C1171      C1172   1.365       .  A
C1171      H1174   1.083       .  S
C1172      C1173   1.384       .  A
C1172      H1175   1.082       .  S
C1173      C1326   1.491       .  S
N1176      C1180   1.359       .  A
N1176      C1177   1.363       .  A
C1177      C1178   1.382       .  A
C1177      C1297   1.501       .  S
C1178      C1179   1.371       .  A
C1178      H1181   1.081       .  S
C1179      C1180   1.388       .  A
C1179      H1182   1.083       .  S
C1180      C1346   1.486       .  S
N1183      C1187   1.370   1_554  A
N1183      C1184   1.372       .  A
N1183      C1226   1.451       .  S
C1184      C1185   1.376   1_554  A
C1184      C1306   1.486       .  S
C1185      C1186   1.361       .  A
C1185      H1188   1.083       .  S
C1186      C1187   1.387       .  A
C1186      H1189   1.082       .  S
C1187      C1286   1.493   1_556  S
N1190      C1194   1.364       .  A
N1190      C1191   1.364       .  A
C1191      C1192   1.384       .  A
C1191      C1277   1.481       .  S
C1192      C1193   1.366       .  A
C1192      H1195   1.083       .  S
C1193      C1194   1.379       .  A
C1193      H1196   1.082       .  S
C1194      C1257   1.489       .  S
N1197      C1201   1.370       .  A
N1197      C1198   1.367       .  A
N1197      C1230   1.449       .  S
C1198      C1199   1.384   1_554  A
C1198      C1246   1.487       .  S
C1199      C1200   1.358       .  A
C1199      H1202   1.082       .  S
C1200      C1201   1.379   1_556  A
C1200      H1203   1.083       .  S
C1201      C1266   1.481       .  S
N1204      C1208   1.362       .  A
N1204      C1205   1.370       .  A
C1205      C1206   1.385       .  A
C1205      C1237   1.489       .  S
C1206      C1207   1.360       .  A
C1206      H1209   1.082       .  S
C1207      C1208   1.378       .  A
C1207      H1210   1.083       .  S
C1208      C1317   1.473       .  S
O1211      C1226   1.267       .  A
O1211     Al1219   1.933       .  S
C1212      O1222   1.257       .  A
C1212      O1213   1.259       .  A
O1213     Al1215   1.930       .  S
O1214      C1216   1.266       .  A
O1214     Al1215   1.926       .  S
Al1215     O1223   1.909       .  S
Al1215     O1225   1.912       .  S
Al1215     O1224   1.793       .  S
C1216      O1229   1.266       .  A
O1217      C1227   1.268       .  A
O1217     Al1219   1.904       .  S
O1218      C1231   1.257       .  A
O1218     Al1228   1.903       .  S
Al1219     O1232   1.916       .  S
Al1219     O1229   1.929       .  S
Al1219     O1224   1.793       .  S
O1220      C1227   1.262       .  A
O1220     Al1228   1.909       .  S
O1221      C1230   1.261       .  A
O1221     Al1228   1.923       .  S
O1222     Al1228   1.895       .  S
O1223      C1230   1.266       .  A
O1224     Al1228   1.799       .  S
O1225      C1226   1.261       .  A
C1231      O1232   1.261       .  A
C1233      C1234   1.412       .  A
C1233      C1238   1.392       .  A
C1233      H1243   1.076       .  S
C1234      C1235   1.418   1_554  A
C1234      C1239   1.511       .  S
C1235      C1236   1.396   1_556  A
C1235      F1240   1.355       .  S
C1236      C1237   1.398       .  A
C1236      H1241   1.076   1_554  S
C1237      C1238   1.406       .  A
C1238      F1242   1.358       .  S
C1239      C1244   1.418       .  A
C1239      C1248   1.412   1_554  A
C1244      C1245   1.399       .  A
C1244      F1249   1.355       .  S
C1245      C1246   1.403       .  A
C1245      H1250   1.081       .  S
C1246      C1247   1.403   1_554  A
C1247      C1248   1.389       .  A
C1247      F1251   1.358       .  S
C1248      H1252   1.073       .  S
C1253      C1254   1.407       .  A
C1253      C1258   1.400       .  A
C1253      H1263   1.083       .  S
C1254      C1255   1.411   1_556  A
C1254      C1259   1.502   1_556  S
C1255      C1256   1.411       .  A
C1255      F1260   1.357       .  S
C1256      C1257   1.408   1_554  A
C1256      H1261   1.083       .  S
C1257      C1258   1.402       .  A
C1258      F1262   1.354       .  S
C1264      C1265   1.405   1_556  A
C1265      C1266   1.407       .  A
C1265      H1270   1.084   1_554  S
C1266      C1267   1.408       .  A
C1267      C1268   1.404       .  A
C1267      F1271   1.356       .  S
C1273      C1274   1.410   1_554  A
C1273      H1283   1.080       .  S
C1274      C1275   1.420       .  A
C1274      C1279   1.508       .  S
C1275      C1276   1.405       .  A
C1275      F1280   1.356       .  S
C1276      H1281   1.083       .  S
C1277      C1278   1.404   1_556  A
C1278      F1282   1.357       .  S
C1279      C1284   1.417   1_556  A
C1279      C1288   1.407       .  A
C1284      C1285   1.405       .  A
C1284      F1289   1.357       .  S
C1285      C1286   1.404       .  A
C1285      H1290   1.081       .  S
C1286      C1287   1.410   1_554  A
C1287      C1288   1.395       .  A
C1287      F1291   1.359       .  S
C1288      H1292   1.079       .  S
C1293      C1294   1.400       .  A
C1293      C1298   1.401       .  A
C1293      H1303   1.083       .  S
C1294      C1295   1.405       .  A
C1294      C1299   1.484       .  S
C1295      C1296   1.403       .  A
C1295      F1300   1.357   1_554  S
C1296      C1297   1.410       .  A
C1296      H1301   1.083       .  S
C1297      C1298   1.412       .  A
C1298      F1302   1.355       .  S
C1299      C1304   1.407       .  A
C1299      C1308   1.399       .  A
C1304      C1305   1.408       .  A
C1304      F1309   1.357       .  S
C1305      C1306   1.407       .  A
C1305      H1310   1.084       .  S
C1306      C1307   1.408       .  A
C1307      C1308   1.399       .  A
C1307      F1311   1.357   1_554  S
C1308      H1312   1.082   1_554  S
C1313      C1314   1.411       .  A
C1313      H1323   1.083       .  S
C1314      C1315   1.411   1_554  A
C1314      C1319   1.501       .  S
C1315      C1316   1.398       .  A
C1315      F1320   1.357       .  S
C1316      H1321   1.084       .  S
C1317      C1318   1.403       .  A
C1318      F1322   1.357       .  S
C1319      C1324   1.412       .  A
C1319      C1328   1.410       .  A
C1324      C1325   1.400       .  A
C1324      F1329   1.357       .  S
C1325      C1326   1.406       .  A
C1325      H1330   1.084       .  S
C1326      C1327   1.407       .  A
C1327      C1328   1.403       .  A
C1327      F1331   1.357       .  S
C1328      H1332   1.083   1_554  S
C1333      C1334   1.408       .  A
C1333      H1343   1.084       .  S
C1334      C1339   1.483       .  S
C1335      C1336   1.402       .  A
C1335      F1340   1.357   1_554  S
C1336      C1337   1.406       .  A
C1336      H1341   1.084       .  S
C1337      C1338   1.403       .  A
C1338      F1342   1.356       .  S
C1339      C1344   1.403       .  A
C1339      C1348   1.406       .  A
C1344      C1345   1.389       .  A
C1344      F1349   1.358       .  S
C1345      C1346   1.408       .  A
C1345      H1350   1.084       .  S
C1346      C1347   1.404       .  A
C1347      C1348   1.403       .  A
C1347      F1351   1.353       .  S
C1348      H1352   1.075       .  S
C1353      C1354   1.410       .  A
C1353      C1358   1.401       .  A
C1353      H1363   1.080       .  S
C1354      C1355   1.414       .  A
C1354      C1359   1.506       .  S
C1355      C1356   1.406       .  A
C1355      F1360   1.357       .  S
C1356      C1357   1.405       .  A
C1356      H1361   1.084       .  S
C1357      C1358   1.403       .  A
C1358      F1362   1.357       .  S
C1359      C1364   1.413       .  A
C1359      C1368   1.411       .  A
C1364      C1365   1.402       .  A
C1364      F1369   1.357       .  S
C1365      C1366   1.403       .  A
C1365      H1370   1.084       .  S
C1366      C1367   1.405       .  A
C1367      C1368   1.406       .  A
C1367      F1371   1.356       .  S
C1368      H1372   1.082       .  S
C1373      C1374   1.404       .  A
C1373      C1378   1.402       .  A
C1373      H1383   1.082       .  S
C1374      C1375   1.413       .  A
C1374      C1379   1.496       .  S
C1375      C1376   1.405       .  A
C1375      F1380   1.357       .  S
C1376      C1377   1.402       .  A
C1376      H1381   1.083       .  S
C1377      C1378   1.408       .  A
C1378      F1382   1.357       .  S
C1379      C1384   1.404       .  A
C1379      C1388   1.406       .  A
C1384      C1385   1.398   1_655  A
C1384      F1389   1.358       .  S
C1387      C1388   1.402   1_455  A
C1387      F1391   1.348       .  S
C1388      H1392   1.083       .  S
C1393      C1398   1.393       .  A
C1394      C1395   1.411   1_565  A
C1394      C1399   1.498       .  S
C1395      F1400   1.353   1_545  S
C1396      C1397   1.408       .  A
C1396      H1401   1.081       .  S
C1397      C1398   1.405       .  A
C1398      F1402   1.358       .  S
C1399      C1404   1.411       .  A
C1399      C1408   1.412       .  A
C1404      C1405   1.397       .  A
C1404      F1409   1.356       .  S
C1405      C1406   1.403       .  A
C1405      H1410   1.084       .  S
C1406      C1407   1.403       .  A
C1407      C1408   1.400       .  A
C1407      F1411   1.357       .  S
C1408      H1412   1.083       .  S
C1413      C1414   1.403       .  A
C1413      C1418   1.395       .  A
C1413      H1423   1.070       .  S
C1414      C1415   1.405       .  A
C1414      C1419   1.481       .  S
C1415      C1416   1.395       .  A
C1415      F1420   1.358       .  S
C1416      C1417   1.404       .  A
C1416      H1421   1.084       .  S
C1417      C1418   1.395       .  A
C1418      F1422   1.356       .  S
C1419      C1424   1.402       .  A
C1419      C1428   1.407       .  A
C1424      F1429   1.358       .  S
C1425      C1426   1.400       .  A
C1425      H1430   1.084       .  S
C1427      C1428   1.398   1_455  A
C1427      F1431   1.358       .  S
C1428      H1432   1.084       .  S
C1433      C1434   1.406       .  A
C1433      H1443   1.083       .  S
C1434      C1439   1.477       .  S
C1435      C1436   1.390       .  A
C1435      F1440   1.357       .  S
C1436      C1437   1.399       .  A
C1436      H1441   1.084       .  S
C1437      C1438   1.403       .  A
C1438      F1442   1.355       .  S
C1439      C1444   1.404       .  A
C1439      C1448   1.403       .  A
C1444      C1445   1.390       .  A
C1444      F1449   1.356       .  S
C1445      C1446   1.403       .  A
C1445      H1450   1.083       .  S
C1446      C1447   1.409       .  A
C1447      C1448   1.398       .  A
C1447      F1451   1.357       .  S
C1448      H1452   1.082       .  S
C1453      C1454   1.408       .  A
C1453      C1458   1.401       .  A
C1453      H1463   1.083       .  S
C1454      C1455   1.411       .  A
C1454      C1459   1.499       .  S
C1455      C1456   1.403       .  A
C1455      F1460   1.355       .  S
C1456      C1457   1.404       .  A
C1456      H1461   1.084       .  S
C1457      C1458   1.406       .  A
C1458      F1462   1.358       .  S
C1459      C1464   1.411       .  A
C1459      C1468   1.408       .  A
C1464      C1465   1.404       .  A
C1464      F1469   1.357       .  S
C1465      C1466   1.404       .  A
C1465      H1470   1.084       .  S
C1466      C1467   1.407       .  A
C1467      C1468   1.401       .  A
C1467      F1471   1.357       .  S
C1468      H1472   1.083       .  S
