geometry optimzed in LAMMPS
_audit_creation_date              2020-11-30 
_audit_creation_method            'lammps2cif' 
_symmetry_space_group_name_H-M    'P1' 
_symmetry_Int_Tables_number       1 
_symmetry_cell_setting            triclinic 
loop_ 
_symmetry_equiv_pos_as_xyz 
  x,y,z 
_cell_length_a                    58.41180222 
_cell_length_b                    58.48959665286005 
_cell_length_c                    58.01883334976527 
_cell_angle_alpha                 90.64425148148824 
_cell_angle_beta                  90.52599416864359 
_cell_angle_gamma                 90.22306136965165 
loop_ 
_atom_site_label 
_atom_site_type_symbol 
_atom_site_fract_x 
_atom_site_fract_y 
_atom_site_fract_z 
_atom_site_charge 
Zr1        Zr  0.47766715  0.77706349  0.74656672     2.17500
O2          O  0.49728970  0.74039902  0.75174856    -0.51900
O3          O  0.49275944  0.76784802  0.70821754    -0.75100
O4          O  0.45235109  0.74548830  0.73806503    -0.81900
O5          O  0.50404207  0.79479184  0.79842861    -0.83700
O6          O  0.42400239  0.76334134  0.71864435    -0.79300
O7          O  0.51249437  0.77336050  0.76851046    -0.90900
O8          O  0.48793626  0.79772105  0.68440987    -0.76900
O9          O  0.45758820  0.79536905  0.71653539    -0.86400
O10         O  0.49929605  0.81117093  0.74049273    -0.86100
O11         O  0.44041380  0.78438818  0.76390715    -0.72800
O12         O  0.47422663  0.79977245  0.78149566    -0.85000
Zr13       Zr  0.44037294  0.85931378  0.75768928     2.26400
Zr14       Zr  0.42064999  0.80225601  0.73253605     2.06300
Zr15       Zr  0.49786614  0.83228992  0.77684068     2.10000
Zr16       Zr  0.47857006  0.82934976  0.70988877     1.78800
O17         O  0.50880703  0.84489926  0.81561855    -0.93800
O18         O  0.45954578  0.83756142  0.67337332    -0.41600
O19         O  0.47818149  0.85015442  0.74543868    -0.78200
O20         O  0.44011726  0.83700772  0.72264418    -0.96900
O21         O  0.41929251  0.82595386  0.76616427    -0.90200
O22         O  0.46025262  0.84320746  0.78972366    -0.93000
C23         C  0.49354081  0.77697211  0.68821678     1.00700
C24         C  0.50917165  0.77479913  0.78992702     1.13700
C25         C  0.43585707  0.74560289  0.72356185     1.04400
O26         O  0.40564782  0.80619374  0.69342712    -0.95200
O27         O  0.38726779  0.82609626  0.73691142    -0.90900
O28         O  0.39958059  0.86104976  0.74924195    -0.84100
C29         C  0.38374482  0.84689088  0.74306869     1.11100
O30         O  0.43722545  0.77924735  0.82590069    -0.97200
Zr31       Zr  0.43815341  0.80982682  0.79766935     1.88900
O32         O  0.42203514  0.87315489  0.79245541    -0.73800
O33         O  0.38882988  0.77711889  0.74194348    -0.53100
O34         O  0.40174059  0.78962819  0.80030704    -0.97700
O35         O  0.45902112  0.81462757  0.83402217    -0.55000
O36         O  0.41468496  0.84182776  0.81385961    -0.74300
C37         C  0.41221665  0.86336089  0.80946225     0.98000
O38         O  0.43171321  0.89360169  0.73577218    -0.63100
O39         O  0.53867018  0.83282289  0.76833835    -0.57900
O40         O  0.46786730  0.89011883  0.76090003    -0.94600
O41         O  0.50243628  0.87492356  0.77097635    -0.93100
O42         O  0.51896203  0.83443205  0.70097278    -0.93400
O43         O  0.48532736  0.86780470  0.69563434    -0.92200
C44         C  0.48951109  0.89192774  0.76459865     1.16900
H45         H  0.51481941  0.80758032  0.73618413     0.32800
H46         H  0.43164173  0.84495294  0.71083447     0.43700
H47         H  0.46121209  0.85371929  0.80268164     0.37200
H48         H  0.43289016  0.77018413  0.76763148     0.33700
H49         H  0.47077520  0.83329071  0.66139901     0.25500
H50         H  0.38188116  0.78406939  0.75583529     0.31400
H51         H  0.39031952  0.80171771  0.80335764     0.37300
H52         H  0.51968417  0.83335004  0.68394840     0.31800
H53         H  0.54059790  0.84609062  0.75806417     0.30600
H54         H  0.52522347  0.84898917  0.81484943     0.32300
H55         H  0.45897103  0.83126979  0.83730721     0.31300
H56         H  0.47991040  0.87815547  0.70803421     0.35300
H57         H  0.42471401  0.88795528  0.72116392     0.28000
H58         H  0.48578359  0.72809205  0.75326171     0.32200
H59         H  0.42625293  0.78428769  0.83782756     0.35100
H60         H  0.54641146  0.83752056  0.78288108     0.27700
H61         H  0.41904442  0.90115609  0.74410263     0.40600
H62         H  0.39711394  0.82078202  0.69341172     0.30600
H63         H  0.44735992  0.82580429  0.67192392     0.38300
H64         H  0.47513619  0.81107566  0.83034523     0.30100
H65         H  0.37740658  0.77951272  0.72949535     0.30200
H66         H  0.50491533  0.73700338  0.73694056     0.30400
Zr67       Zr  0.51590050  0.11908282  0.80528438     2.17500
O68         O  0.50344243  0.15771840  0.81524612    -0.51900
O69         O  0.55637686  0.12721965  0.81249137    -0.75100
O70         O  0.51987383  0.13178263  0.84511850    -0.81900
O71         O  0.50069808  0.12246139  0.74223449    -0.83700
O72         O  0.51579341  0.10021112  0.86704192    -0.79300
O73         O  0.51415623  0.14428386  0.77222968    -0.90900
O74         O  0.56943527  0.09356268  0.82591297    -0.76900
O75         O  0.52930157  0.08845908  0.82786990    -0.86400
O76         O  0.53596360  0.09481763  0.77880350    -0.86100
O77         O  0.48229617  0.10249847  0.82244454    -0.72800
O78         O  0.48809395  0.10568159  0.77758304    -0.85000
Zr79       Zr  0.48739352  0.03455963  0.79212897     2.26400
Zr80       Zr  0.49675988  0.07111870  0.84437654     2.06300
Zr81       Zr  0.50780968  0.08090417  0.75122129     2.10000
Zr82       Zr  0.54936825  0.06436915  0.80262126     1.78800
O83         O  0.48399465  0.08048382  0.71656311    -0.93800
O84         O  0.56882547  0.04482590  0.83405920    -0.41600
O85         O  0.52128579  0.05070319  0.77526288    -0.78200
O86         O  0.51667018  0.04571192  0.81922232    -0.96900
O87         O  0.46765312  0.05888558  0.81781750    -0.90200
O88         O  0.47435128  0.06463361  0.76807922    -0.93000
C89         C  0.56993556  0.11551068  0.82524265     1.00700
C90         C  0.50466205  0.14213953  0.75226113     1.13700
C91         C  0.52091538  0.12131202  0.86442477     1.04400
O92         O  0.51489157  0.05638667  0.87915811    -0.95200
O93         O  0.48666914  0.03314714  0.85678909    -0.90900
O94         O  0.47574830  0.01300412  0.82496885    -0.84100
C95         C  0.47805644  0.01543281  0.84679497     1.11100
O96         O  0.43926819  0.12737931  0.79933980    -0.97200
Zr97       Zr  0.45463809  0.08904442  0.79412566     1.88900
O98         O  0.44823439  0.02529884  0.78079952    -0.73800
O99         O  0.46446315  0.08431184  0.86713423    -0.53100
O100        O  0.42614292  0.08731511  0.82441914    -0.97700
O101        O  0.43415564  0.10485575  0.76122808    -0.55000
O102        O  0.42824946  0.05851007  0.78135829    -0.74300
C103        C  0.42989336  0.03686260  0.77741459     0.98000
O104        O  0.50247284  0.99577968  0.79150516    -0.63100
O105        O  0.53983491  0.08606876  0.72519568    -0.57900
O106        O  0.48406876  0.02129600  0.75368942    -0.94600
O107        O  0.51314570  0.03980002  0.73708844    -0.93100
O108        O  0.57997178  0.07237072  0.77552822    -0.93400
O109        O  0.56759449  0.02814362  0.79276995    -0.92200
C110        C  0.50107619  0.02137337  0.74042774     1.16900
H111        H  0.54816555  0.10309310  0.77143595     0.32800
H112        H  0.52183511  0.03249599  0.82761070     0.43700
H113        H  0.46426260  0.05939390  0.75583344     0.37200
H114        H  0.47525026  0.11358299  0.83258696     0.33700
H115        H  0.58480378  0.05053201  0.83376201     0.25500
H116        H  0.45258884  0.07236356  0.86481724     0.31400
H117        H  0.41150881  0.09109669  0.81662815     0.37300
H118        H  0.58661287  0.08715177  0.78078516     0.31800
H119        H  0.54233490  0.10280348  0.72476349     0.30600
H120        H  0.49425295  0.07501276  0.70420546     0.32300
H121        H  0.41775361  0.10237038  0.76462691     0.31300
H122        H  0.58426357  0.03129797  0.79272224     0.35300
H123        H  0.51019144  0.99358637  0.80658009     0.28000
H124        H  0.51569413  0.16809196  0.80991452     0.32200
H125        H  0.45294504  0.13733907  0.80091074     0.35100
H126        H  0.55326126  0.08009254  0.73371372     0.27700
H127        H  0.48890074  0.98558239  0.79172135     0.40600
H128        H  0.50371617  0.05900050  0.89163557     0.30600
H129        H  0.56232175  0.05167095  0.84824007     0.38300
H130        H  0.43736123  0.09418443  0.74830057     0.30100
H131        H  0.46946982  0.08261655  0.88336883     0.30200
H132        H  0.49006346  0.16089804  0.80521663     0.30400
Zr133      Zr  0.53640139  0.27861550  0.76321288     2.17500
O134        O  0.53558788  0.23818467  0.75305737    -0.51900
O135        O  0.51983431  0.27149011  0.80088215    -0.75100
O136        O  0.56296059  0.25081829  0.77712723    -0.81900
O137        O  0.49444851  0.29062212  0.72123057    -0.83700
O138        O  0.59820847  0.26636321  0.77251503    -0.79300
O139        O  0.49689956  0.27216322  0.75426451    -0.90900
O140        O  0.52568568  0.30325903  0.82295721    -0.76900
O141        O  0.56101653  0.29906946  0.78859355    -0.86400
O142        O  0.51537682  0.31230255  0.77227136    -0.86100
O143        O  0.56960433  0.28557460  0.74001664    -0.72800
O144        O  0.52989951  0.29645322  0.72631592    -0.85000
Zr145      Zr  0.56703402  0.36017966  0.74015245     2.26400
Zr146      Zr  0.59373468  0.30697484  0.76583585     2.06300
Zr147      Zr  0.50820255  0.32986269  0.73540007     2.10000
Zr148      Zr  0.54080282  0.33292877  0.79752319     1.78800
O149        O  0.49002133  0.34177112  0.69958693    -0.93800
O150        O  0.56738680  0.33267527  0.83017902    -0.41600
O151        O  0.53339915  0.35028995  0.76111097    -0.78200
O152        O  0.57529343  0.34210306  0.77667751    -0.96900
O153        O  0.58709978  0.32633994  0.73047780    -0.90200
O154        O  0.54204977  0.33994937  0.71393807    -0.93000
C155        C  0.51855632  0.28256852  0.82005352     1.00700
C156        C  0.49141356  0.27217825  0.73316057     1.13700
C157        C  0.58478967  0.25000304  0.77821677     1.04400
O158        O  0.60880018  0.31887442  0.80339320    -0.95200
O159        O  0.62161293  0.32969178  0.74631251    -0.90900
O160        O  0.60762405  0.36549980  0.74889303    -0.84100
C161        C  0.62415748  0.35135837  0.74604873     1.11100
O162        O  0.55424395  0.27103086  0.68336883    -0.97200
Zr163      Zr  0.56320743  0.30613998  0.70463995     1.88900
O164        O  0.58353241  0.36746701  0.70212276    -0.73800
O165        O  0.63115283  0.28860751  0.76723246    -0.53100
O166        O  0.59638571  0.28363724  0.69347722    -0.97700
O167        O  0.54213108  0.31537094  0.66949955    -0.55000
O168        O  0.58924541  0.33278934  0.68539669    -0.74300
C169        C  0.59300309  0.35447347  0.68689633     0.98000
O170        O  0.57495528  0.40097039  0.74451952    -0.63100
O171        O  0.46923357  0.33038020  0.74998352    -0.57900
O172        O  0.53744823  0.38926465  0.74581798    -0.94600
O173        O  0.50239821  0.37230767  0.74189123    -0.93100
O174        O  0.50629064  0.34858356  0.81467029    -0.93400
O175        O  0.54287957  0.37245518  0.81115377    -0.92200
C176        C  0.51540595  0.39012725  0.74595862     1.16900
H177        H  0.50120206  0.30882339  0.77996940     0.32800
H178        H  0.58518206  0.35167906  0.78592596     0.43700
H179        H  0.53844026  0.34897260  0.70054241     0.37200
H180        H  0.57654469  0.27118175  0.73587799     0.33700
H181        H  0.57445596  0.34808191  0.83072553     0.25500
H182        H  0.63654567  0.28812452  0.75110138     0.31400
H183        H  0.60769399  0.28633570  0.70604998     0.37300
H184        H  0.49555190  0.35043754  0.80153308     0.31800
H185        H  0.46528127  0.31411439  0.75240823     0.30600
H186        H  0.49394041  0.32960923  0.68830609     0.32300
H187        H  0.52899301  0.30462771  0.66888371     0.31300
H188        H  0.55284169  0.38024418  0.79994418     0.35300
H189        H  0.58072993  0.40287545  0.76053223     0.28000
H190        H  0.51961364  0.23303877  0.75508149     0.32200
H191        H  0.55495952  0.25887341  0.69509175     0.35100
H192        H  0.47065112  0.33699198  0.76571595     0.27700
H193        H  0.58842248  0.40394107  0.73473258     0.40600
H194        H  0.61161691  0.30437719  0.81158350     0.30600
H195        H  0.55750338  0.33219690  0.84394114     0.38300
H196        H  0.55221355  0.31039181  0.65677883     0.30100
H197        H  0.64145102  0.29964795  0.77524211     0.30200
H198        H  0.53853304  0.23762308  0.73631460     0.30400
Zr199      Zr  0.48629109  0.63193325  0.72280127     2.17500
O200        O  0.49506824  0.67200262  0.73116584    -0.51900
O201        O  0.44828814  0.63535677  0.70455953    -0.75100
O202        O  0.48608829  0.65169454  0.68578455    -0.81900
O203        O  0.49251266  0.62434275  0.78483367    -0.83700
O204        O  0.50096395  0.62445496  0.66230674    -0.79300
O205        O  0.47325749  0.64676158  0.75982146    -0.90900
O206        O  0.44502436  0.60268780  0.68344800    -0.76900
O207        O  0.48633814  0.60506876  0.69212205    -0.86400
O208        O  0.46646136  0.59906566  0.73726096    -0.86100
O209        O  0.52608353  0.62558455  0.71340870    -0.72800
O210        O  0.50914050  0.61615776  0.75321598    -0.85000
Zr211      Zr  0.52758868  0.55145395  0.72662737     2.26400
Zr212      Zr  0.52500392  0.59810721  0.68259807     2.06300
Zr213      Zr  0.48957549  0.58400112  0.76854832     2.10000
Zr214      Zr  0.46598732  0.57324172  0.70491465     1.78800
O215        O  0.49510851  0.58167148  0.81009364    -0.93800
O216        O  0.45843537  0.55772948  0.66644193    -0.41600
O217        O  0.48839055  0.55862910  0.73618508    -0.78200
O218        O  0.50504769  0.56426717  0.69432172    -0.96900
O219        O  0.54798088  0.58369207  0.71321098    -0.90200
O220        O  0.52890587  0.57651932  0.75925501    -0.93000
C221        C  0.43971831  0.62367376  0.68754436     1.00700
C222        C  0.48426779  0.64414215  0.77885492     1.13700
C223        C  0.48977511  0.64293489  0.66575250     1.04400
O224        O  0.52664536  0.59667184  0.64065253    -0.95200
O225        O  0.54461204  0.56610994  0.66509007    -0.90900
O226        O  0.54631525  0.53880621  0.69239732    -0.84100
C227        C  0.55112902  0.54670991  0.67266156     1.11100
O228        O  0.55634863  0.64978798  0.75329877    -0.97200
Zr229      Zr  0.54821049  0.60971114  0.74479555     1.88900
O230        O  0.56461447  0.54729511  0.74649248    -0.73800
O231        O  0.55799277  0.62291071  0.67683727    -0.53100
O232        O  0.58124079  0.62328998  0.72341154    -0.97700
O233        O  0.55531631  0.61876311  0.78531919    -0.55000
O234        O  0.57788827  0.58277108  0.75549480    -0.74300
C235        C  0.57995453  0.56095191  0.75485322     0.98000
O236        O  0.53374214  0.51011349  0.72557412    -0.63100
O237        O  0.44960197  0.58104680  0.77972929    -0.57900
O238        O  0.50542044  0.52340296  0.74554387    -0.94600
O239        O  0.49312358  0.54126132  0.77799153    -0.93100
O240        O  0.42848820  0.56995938  0.72271416    -0.93400
O241        O  0.45378017  0.53339762  0.70392759    -0.92200
C242        C  0.49763583  0.52279647  0.76587585     1.16900
H243        H  0.45126115  0.60330331  0.74208934     0.32800
H244        H  0.50469416  0.55289370  0.68212624     0.43700
H245        H  0.53668206  0.56992649  0.77233863     0.37200
H246        H  0.53284651  0.63980322  0.70851711     0.33700
H247        H  0.44221838  0.56148313  0.66316660     0.25500
H248        H  0.56708109  0.61498631  0.66487261     0.31400
H249        H  0.59463156  0.61539912  0.73016234     0.37300
H250        H  0.41971125  0.58324912  0.71706196     0.31800
H251        H  0.44973346  0.57076537  0.79316739     0.30600
H252        H  0.51089958  0.57587082  0.81204234     0.32300
H253        H  0.57102494  0.61328837  0.78854003     0.31300
H254        H  0.46815048  0.52463620  0.70219915     0.35300
H255        H  0.52735782  0.50451805  0.71065348     0.28000
H256        H  0.51044284  0.67456129  0.72460627     0.32200
H257        H  0.54132499  0.65634162  0.75748652     0.35100
H258        H  0.44593093  0.59629409  0.78626316     0.27700
H259        H  0.55048988  0.50793007  0.72435358     0.40600
H260        H  0.51283550  0.58792570  0.63578378     0.30600
H261        H  0.46727915  0.56771841  0.65607881     0.38300
H262        H  0.54525300  0.60818919  0.79381258     0.30100
H263        H  0.55166566  0.63646390  0.66896570     0.30200
H264        H  0.48455410  0.68091943  0.72129941     0.30400
Zr265      Zr  0.97586826  0.28332070  0.01437995     2.17500
O266        O  0.01409343  0.27974795  0.99854768    -0.51900
O267        O  0.98561116  0.26799465  0.05215454    -0.75100
O268        O  0.00324473  0.30838454  0.03236924    -0.81900
O269        O  0.96055879  0.24107707  0.97458666    -0.83700
O270        O  0.98970940  0.34425675  0.02773534    -0.79300
O271        O  0.97911494  0.24324940  0.00771473    -0.90900
O272        O  0.95588609  0.27548556  0.07596400    -0.76900
O273        O  0.95757038  0.30872753  0.03986177    -0.86400
O274        O  0.94247723  0.26306269  0.02578558    -0.86100
O275        O  0.96834899  0.31606120  0.99049879    -0.72800
O276        O  0.95497075  0.27657903  0.97865152    -0.85000
Zr277      Zr  0.89364741  0.31432929  0.99561879     2.26400
Zr278      Zr  0.94962624  0.34112494  0.01692410     2.06300
Zr279      Zr  0.92225169  0.25513668  0.99015204     2.10000
Zr280      Zr  0.92422737  0.28919774  0.05149367     1.78800
O281        O  0.90926598  0.23205004  0.95730387    -0.93800
O282        O  0.92676507  0.31612671  0.08379721    -0.41600
O283        O  0.90343724  0.28062577  0.01661804    -0.78200
O284        O  0.91513853  0.32331971  0.03017166    -0.96900
O285        O  0.92688881  0.33360338  0.98359593    -0.90200
O286        O  0.91122774  0.28852455  0.96879581    -0.93000
C287        C  0.97621934  0.26795476  0.07210954     1.00700
C288        C  0.97915668  0.23795858  0.98660987     1.13700
C289        C  0.00486541  0.33003099  0.03466199     1.04400
O290        O  0.94666453  0.35942641  0.05465961    -0.95200
O291        O  0.92409433  0.37127219  0.00639296    -0.90900
O292        O  0.89075069  0.35588052  0.99300406    -0.84100
C293        C  0.90419530  0.37292175  0.99719273     1.11100
O294        O  0.97729556  0.29993827  0.93327258    -0.97200
Zr295      Zr  0.94418590  0.30938796  0.95666043     1.88900
O296        O  0.88168569  0.32437535  0.95699469    -0.73800
O297        O  0.96702135  0.37500292  0.00018866    -0.53100
O298        O  0.96402069  0.34309230  0.94256117    -0.97700
O299        O  0.93421497  0.28710849  0.92220382    -0.55000
O300        O  0.91451615  0.33434328  0.93942902    -0.74300
C301        C  0.89260753  0.33566652  0.94173978     0.98000
O302        O  0.85836254  0.32735653  0.01354475    -0.63100
O303        O  0.92251169  0.21843030  0.00956122    -0.57900
O304        O  0.86290747  0.28652380  0.99665624    -0.94600
O305        O  0.87942617  0.25131839  0.99419062    -0.93100
O306        O  0.90995952  0.25458793  0.06957325    -0.93400
O307        O  0.88589849  0.29368841  0.06712852    -0.92200
C308        C  0.86172388  0.26459516  0.99678322     1.16900
H309        H  0.94622889  0.24912940  0.03373618     0.32800
H310        H  0.90661357  0.33394150  0.03960916     0.43700
H311        H  0.90100793  0.28453486  0.95619338     0.37200
H312        H  0.98267420  0.32276824  0.98575603     0.33700
H313        H  0.91542176  0.32818272  0.08038339     0.25500
H314        H  0.97536969  0.38283478  0.01295410     0.31400
H315        H  0.95794874  0.34523954  0.92674035     0.37300
H316        H  0.92065773  0.24232829  0.06492004     0.31800
H317        H  0.91170859  0.22040316  0.02247727     0.30600
H318        H  0.89769190  0.24156352  0.94939849     0.32300
H319        H  0.91795116  0.29063634  0.91892225     0.31300
H320        H  0.87786126  0.30369424  0.05605583     0.35300
H321        H  0.86325842  0.33883941  0.02527464     0.28000
H322        H  0.01822077  0.29508166  0.99279568     0.32200
H323        H  0.99049869  0.30128750  0.94403663     0.35100
H324        H  0.91457629  0.20779681  0.99873500     0.27700
H325        H  0.85040254  0.33630096  0.00151289     0.40600
H326        H  0.93891255  0.37413690  0.05173335     0.30600
H327        H  0.92028245  0.30780781  0.09701220     0.38300
H328        H  0.93413362  0.27101727  0.92732647     0.30100
H329        H  0.97908221  0.36911275  0.98984073     0.30200
H330        H  0.02452799  0.27703925  0.01177836     0.30400
Zr331      Zr  0.72035007  0.25808666  0.96429182     2.17500
O332        O  0.76148590  0.25527554  0.97124792    -0.51900
O333        O  0.72902411  0.29531537  0.98167886    -0.75100
O334        O  0.74335578  0.27052899  0.93246562    -0.81900
O335        O  0.71092463  0.24448990  0.02225471    -0.83700
O336        O  0.71781135  0.27799244  0.90396614    -0.79300
O337        O  0.72832285  0.22965887  0.99231329    -0.90900
O338        O  0.69978724  0.31858967  0.97119389    -0.76900
O339        O  0.69663974  0.27961849  0.93954729    -0.86400
O340        O  0.69065511  0.27272931  0.98870267    -0.86100
O341        O  0.70958262  0.23138268  0.93432557    -0.72800
O342        O  0.70088134  0.22530392  0.97933759    -0.85000
Zr343      Zr  0.63537804  0.23448665  0.94892770     2.26400
Zr344      Zr  0.68481040  0.25335227  0.91029635     2.06300
Zr345      Zr  0.67141119  0.23983892  0.00400092     2.10000
Zr346      Zr  0.66690417  0.29373698  0.96283805     1.78800
O347        O  0.66708172  0.20393635  0.02435898    -0.93800
O348        O  0.66296492  0.32420212  0.93480029    -0.41600
O349        O  0.64819340  0.26105560  0.97792299    -0.78200
O350        O  0.65358952  0.26779280  0.93283567    -0.96900
O351        O  0.66575228  0.22118678  0.92567646    -0.90200
O352        O  0.65863820  0.21271216  0.97470239    -0.93000
C353        C  0.71987058  0.31517230  0.97971231     1.00700
C354        C  0.72958605  0.23752600  0.01262260     1.13700
C355        C  0.73723157  0.28085215  0.91417367     1.04400
O356        O  0.67222127  0.27978994  0.88070146    -0.95200
O357        O  0.65469080  0.23548443  0.88721461    -0.90900
O358        O  0.62349596  0.22899874  0.90937850    -0.84100
C359        C  0.63395202  0.22870496  0.89008038     1.11100
O360        O  0.72348531  0.17900386  0.96134221    -0.97200
Zr361      Zr  0.68868594  0.19906256  0.94991948     1.88900
O362        O  0.62553250  0.19452890  0.94081168    -0.73800
O363        O  0.70803091  0.23346490  0.88176232    -0.53100
O364        O  0.70960497  0.18135016  0.91827403    -0.97700
O365        O  0.67931649  0.16527620  0.97233818    -0.55000
O366        O  0.65861569  0.18098747  0.92620622    -0.74300
C367        C  0.63666568  0.18083808  0.92759169     0.98000
O368        O  0.59835347  0.25215552  0.94147878    -0.63100
O369        O  0.66723157  0.25532265  0.04286864    -0.57900
O370        O  0.60906014  0.23479175  0.98117466    -0.94600
O371        O  0.62984239  0.25074906  0.01050499    -0.93100
O372        O  0.65524049  0.31167538  0.99890504    -0.93400
O373        O  0.62908284  0.31101794  0.96059584    -0.92200
C374        C  0.61038223  0.24638572  0.00008687     1.16900
H375        H  0.69589697  0.28209649  0.00152221     0.32800
H376        H  0.64293253  0.27558089  0.92282075     0.43700
H377        H  0.64984509  0.20042932  0.98124194     0.37200
H378        H  0.72296315  0.22636714  0.92604205     0.33700
H379        H  0.66438938  0.33853228  0.94396759     0.25500
H380        H  0.69801714  0.22112563  0.87555304     0.31400
H381        H  0.70620551  0.19094814  0.90474386     0.37300
H382        H  0.64605977  0.29983475  0.00671129     0.31800
H383        H  0.67684489  0.24547093  0.05275380     0.30600
H384        H  0.68265954  0.19730994  0.02444350     0.32300
H385        H  0.66330274  0.16135623  0.96813741     0.31300
H386        H  0.62015980  0.30083275  0.95011512     0.35300
H387        H  0.58839247  0.23976568  0.93528247     0.28000
H388        H  0.76813781  0.27052150  0.96816072     0.32200
H389        H  0.72085689  0.16268109  0.95735508     0.35100
H390        H  0.67543175  0.27017161  0.04262581     0.27700
H391        H  0.60079698  0.26252746  0.92834406     0.40600
H392        H  0.67757819  0.29498108  0.88624458     0.30600
H393        H  0.67717731  0.32353714  0.92566073     0.38300
H394        H  0.67860625  0.17071220  0.98852744     0.30100
H395        H  0.70938984  0.24437516  0.86891397     0.30200
H396        H  0.76744966  0.24503507  0.95901257     0.30400
Zr397      Zr  0.46824490  0.22072669  0.99731105     2.17500
O398        O  0.50566762  0.22161804  0.01609994    -0.51900
O399        O  0.47923691  0.23102189  0.95811297    -0.75100
O400        O  0.49259701  0.19139672  0.98291427    -0.81900
O401        O  0.46094442  0.27073522  0.02873272    -0.83700
O402        O  0.47194449  0.15848677  0.98430981    -0.79300
O403        O  0.47808421  0.26004491  0.99658381    -0.90900
O404        O  0.44707648  0.22951234  0.93596465    -0.76900
O405        O  0.44600169  0.19557774  0.97426529    -0.86400
O406        O  0.43768347  0.24418146  0.98398254    -0.86100
O407        O  0.45700203  0.19165564  0.02429304    -0.72800
O408        O  0.44976613  0.23401839  0.03212313    -0.85000
Zr409      Zr  0.38341544  0.20279849  0.01897488     2.26400
Zr410      Zr  0.43443082  0.16681269  0.00033723     2.06300
Zr411      Zr  0.41985088  0.25814506  0.01857797     2.10000
Zr412      Zr  0.41542017  0.21831099  0.96086060     1.78800
O413        O  0.40902215  0.27842998  0.05369136    -0.93800
O414        O  0.41633126  0.18869884  0.93103457    -0.41600
O415        O  0.39742933  0.23248197  0.99480052    -0.78200
O416        O  0.40251704  0.18791572  0.98528921    -0.96900
O417        O  0.41412153  0.18041027  0.03302453    -0.90200
O418        O  0.40489825  0.22859512  0.04322473    -0.93000
C419        C  0.46865867  0.23323373  0.93869148     1.00700
C420        C  0.47925327  0.26955210  0.01611777     1.13700
C421        C  0.48987810  0.17005982  0.97906823     1.04400
O422        O  0.42170640  0.14114471  0.96942652    -0.95200
O423        O  0.40572870  0.14303139  0.01753633    -0.90900
O424        O  0.37245567  0.16283190  0.01844502    -0.84100
C425        C  0.38416525  0.14452682  0.02106174     1.11100
O426        O  0.46646160  0.22102619  0.08046065    -0.97200
Zr427      Zr  0.43516683  0.20495592  0.05738340     1.88900
O428        O  0.37308607  0.19360321  0.05847625    -0.73800
O429        O  0.45523348  0.13495547  0.01712911    -0.53100
O430        O  0.45875867  0.17607462  0.07590852    -0.97700
O431        O  0.42277371  0.22696717  0.09100966    -0.55000
O432        O  0.40537990  0.17942274  0.07408253    -0.74300
C433        C  0.38331255  0.17975252  0.07217896     0.98000
O434        O  0.34505043  0.19217264  0.00549129    -0.63100
O435        O  0.42203118  0.29654111  0.00283133    -0.57900
O436        O  0.35752898  0.23523110  0.01456559    -0.94600
O437        O  0.37907387  0.26682525  0.00702339    -0.93100
O438        O  0.40081924  0.25095331  0.93966808    -0.93400
O439        O  0.37670657  0.21571949  0.94511419    -0.92200
C440        C  0.35962122  0.25590771  0.00750188     1.16900
H441        H  0.44269667  0.25676749  0.97461080     0.32800
H442        H  0.39233036  0.17779044  0.97677755     0.43700
H443        H  0.39531311  0.23481340  0.05519331     0.37200
H444        H  0.47043281  0.18360617  0.02960730     0.33700
H445        H  0.41349526  0.19693844  0.91647906     0.25500
H446        H  0.44966474  0.13402635  0.03315497     0.31400
H447        H  0.44785262  0.16614660  0.08413548     0.37300
H448        H  0.41393191  0.26165005  0.93864355     0.31800
H449        H  0.42454888  0.29417503  0.98612939     0.30600
H450        H  0.41432163  0.29433274  0.05139550     0.32300
H451        H  0.40647672  0.22290612  0.09321851     0.31300
H452        H  0.36801843  0.20690709  0.95660328     0.35300
H453        H  0.34243993  0.20065270  0.99103881     0.28000
H454        H  0.50845475  0.20593770  0.02170389     0.32200
H455        H  0.48026551  0.21865098  0.07096170     0.35100
H456        H  0.40627271  0.30262903  0.00382953     0.27700
H457        H  0.33422686  0.19881144  0.01674421     0.40600
H458        H  0.42204459  0.15051801  0.95535555     0.30600
H459        H  0.43259659  0.18407064  0.93018500     0.38300
H460        H  0.42261030  0.24311088  0.08605221     0.30100
H461        H  0.44884769  0.12118399  0.00929250     0.30200
H462        H  0.51683036  0.22386500  0.00357761     0.30400
Zr463      Zr  0.13753927  0.26763379  0.05765947     2.17500
O464        O  0.09994063  0.25443248  0.07010654    -0.51900
O465        O  0.12860700  0.30723890  0.06742731    -0.75100
O466        O  0.12948151  0.26834240  0.09885405    -0.81900
O467        O  0.12914388  0.25708389  0.99277723    -0.83700
O468        O  0.16303092  0.26251115  0.11784912    -0.79300
O469        O  0.10971282  0.26343854  0.02613369    -0.90900
O470        O  0.16197379  0.32190951  0.08076779    -0.76900
O471        O  0.16962050  0.28054865  0.07920170    -0.86400
O472        O  0.15823369  0.29157588  0.03177042    -0.86100
O473        O  0.15732323  0.23368382  0.06996988    -0.72800
O474        O  0.14959299  0.24376337  0.02632669    -0.85000
Zr475      Zr  0.22224057  0.24533683  0.03529412     2.26400
Zr476      Zr  0.19021986  0.24781819  0.09076445     2.06300
Zr477      Zr  0.17094062  0.26720020  0.00047693     2.10000
Zr478      Zr  0.19021907  0.30453475  0.05478046     1.78800
O479        O  0.17270711  0.24854361  0.96280670    -0.93800
O480        O  0.21099860  0.32106599  0.08765285    -0.41600
O481        O  0.20235307  0.27971147  0.02416811    -0.78200
O482        O  0.21238109  0.27138840  0.06607689    -0.96900
O483        O  0.20061982  0.22240922  0.06033600    -0.90200
O484        O  0.19048167  0.23286530  0.01210935    -0.93000
C485        C  0.13998124  0.32065077  0.08106330     1.00700
C486        C  0.11034855  0.25720134  0.00479403     1.13700
C487        C  0.14181623  0.26784944  0.11732295     1.04400
O488        O  0.20971900  0.26620491  0.12334476    -0.95200
O489        O  0.22836305  0.23401977  0.09864679    -0.90900
O490        O  0.24672276  0.22919955  0.06461732    -0.84100
C491        C  0.24523961  0.22710988  0.08649518     1.11100
O492        O  0.13091974  0.19282028  0.04006438    -0.97200
Zr493      Zr  0.16890548  0.20986597  0.03784853     1.88900
O494        O  0.23178107  0.20697257  0.02211908    -0.73800
O495        O  0.18015561  0.21476145  0.11375747    -0.53100
O496        O  0.16740708  0.17799371  0.06444640    -0.97700
O497        O  0.15579970  0.19347151  0.00119615    -0.55000
O498        O  0.20068928  0.18452507  0.02805945    -0.74300
C499        C  0.22162346  0.18746780  0.02211074     0.98000
O500        O  0.26077585  0.26127149  0.03408125    -0.63100
O501        O  0.15926257  0.30009529  0.97790839    -0.57900
O502        O  0.23118066  0.24993032  0.99556983    -0.94600
O503        O  0.21065397  0.28097123  0.98832643    -0.93100
O504        O  0.17717563  0.33728813  0.03261079    -0.93400
O505        O  0.22369805  0.32615235  0.04259016    -0.92200
C506        C  0.23006200  0.27006586  0.98795854     1.16900
H507        H  0.14878353  0.30394825  0.02625863     0.32800
H508        H  0.22610909  0.27622047  0.07397853     0.43700
H509        H  0.19525734  0.22406142  0.99884863     0.37200
H510        H  0.14758848  0.22499050  0.08018090     0.33700
H511        H  0.20530762  0.31248827  0.10107517     0.25500
H512        H  0.19097441  0.21530571  0.12699084     0.31400
H513        H  0.18333265  0.17623199  0.07012747     0.37300
H514        H  0.18701488  0.33762650  0.01881602     0.31800
H515        H  0.14307951  0.30273564  0.98206526     0.30600
H516        H  0.17605168  0.26107670  0.95199591     0.32300
H517        H  0.16848436  0.18362778  0.99585564     0.31300
H518        H  0.22124424  0.34198445  0.04823764     0.35300
H519        H  0.27105084  0.24806198  0.03159276     0.28000
H520        H  0.08856365  0.26510306  0.06353492     0.32200
H521        H  0.12197491  0.20382210  0.04939306     0.35100
H522        H  0.16771319  0.31315554  0.98494229     0.27700
H523        H  0.26426811  0.26681772  0.04991492     0.40600
H524        H  0.20693720  0.25599659  0.13653990     0.30600
H525        H  0.22706204  0.31602288  0.08601236     0.38300
H526        H  0.15567345  0.20643944  0.99037428     0.30100
H527        H  0.18519359  0.20145541  0.10446318     0.30200
H528        H  0.09723963  0.23966241  0.06201313     0.30400
Zr529      Zr  0.78146526  0.45941705  0.87042880     2.17500
O530        O  0.78558923  0.45504253  0.91215955    -0.51900
O531        O  0.82030070  0.44523629  0.87631091    -0.75100
O532        O  0.77081884  0.42208154  0.88574743    -0.81900
O533        O  0.77574559  0.52610328  0.87162070    -0.83700
O534        O  0.76536369  0.40007141  0.85385972    -0.79300
O535        O  0.77486436  0.49405986  0.89358619    -0.90900
O536        O  0.83211820  0.43172931  0.84169431    -0.76900
O537        O  0.78826766  0.43390737  0.83926370    -0.86400
O538        O  0.80504217  0.48072378  0.84437914    -0.86100
O539        O  0.74401779  0.44868221  0.85588829    -0.72800
O540        O  0.75991706  0.49088233  0.85646183    -0.85000
Zr541      Zr  0.75052359  0.47615161  0.78608593     2.26400
Zr542      Zr  0.75184738  0.42418405  0.82346514     2.06300
Zr543      Zr  0.78256249  0.51273028  0.83062964     2.10000
Zr544      Zr  0.81113071  0.45424297  0.81318979     1.78800
O545        O  0.76860665  0.55170437  0.82687692    -0.93800
O546        O  0.82232683  0.41908052  0.79347702    -0.41600
O547        O  0.78828751  0.48559220  0.80045303    -0.78200
O548        O  0.77444076  0.44424814  0.79630428    -0.96900
O549        O  0.72809649  0.45553690  0.81259295    -0.90200
O550        O  0.74476006  0.50291401  0.81670821    -0.93000
C551        C  0.83297758  0.43225155  0.86383245     1.00700
C552        C  0.77300823  0.51582733  0.89123667     1.13700
C553        C  0.76914570  0.40255460  0.87549071     1.04400
O554        O  0.76755819  0.39036350  0.80460928    -0.95200
O555        O  0.73361084  0.41393305  0.78723742    -0.90900
O556        O  0.73342393  0.44527177  0.76455888    -0.84100
C557        C  0.72860451  0.42441644  0.76856112     1.11100
O558        O  0.70919772  0.48281520  0.88313855    -0.97200
Zr559      Zr  0.72246376  0.48157722  0.84348451     1.88900
O560        O  0.71157218  0.49021814  0.77974320    -0.73800
O561        O  0.71860204  0.40312814  0.83704237    -0.53100
O562        O  0.68977107  0.45579435  0.84573329    -0.97700
O563        O  0.70982390  0.51760849  0.86051895    -0.55000
O564        O  0.69621618  0.49683218  0.81492967    -0.74300
C565        C  0.69542697  0.49736492  0.79285984     0.98000
O566        O  0.75972621  0.47606921  0.74512916    -0.63100
O567        O  0.82005092  0.52990021  0.83785150    -0.57900
O568        O  0.75884999  0.51277011  0.77056131    -0.94600
O569        O  0.79203257  0.52081415  0.78842577    -0.93100
O570        O  0.84772053  0.47414515  0.81639965    -0.93400
O571        O  0.82567534  0.46116948  0.77471956    -0.92200
C572        C  0.77935674  0.51983515  0.76980196     1.16900
H573        H  0.81920358  0.48561494  0.85166636     0.32800
H574        H  0.77686449  0.43469161  0.78285731     0.43700
H575        H  0.73685785  0.51644017  0.81156414     0.37200
H576        H  0.73539837  0.44051015  0.86733817     0.33700
H577        H  0.83927520  0.41919823  0.79409317     0.25500
H578        H  0.70706417  0.40441208  0.82452360     0.31400
H579        H  0.67710070  0.46550646  0.85135459     0.37300
H580        H  0.85920255  0.46178229  0.81754437     0.31800
H581        H  0.82381488  0.53771921  0.82330970     0.30600
H582        H  0.78204983  0.56151662  0.83045769     0.32300
H583        H  0.69429744  0.52018099  0.85408233     0.31300
H584        H  0.81309607  0.45608573  0.76427355     0.35300
H585        H  0.76550305  0.46061858  0.74125118     0.28000
H586        H  0.79772042  0.46588846  0.91727264     0.32200
H587        H  0.72043843  0.47358615  0.89183556     0.35100
H588        H  0.81721592  0.54246184  0.84902897     0.27700
H589        H  0.74492150  0.47742704  0.73680124     0.40600
H590        H  0.78127816  0.38634926  0.81382812     0.30600
H591        H  0.81784117  0.40669033  0.80402398     0.38300
H592        H  0.71950373  0.52941311  0.85329413     0.30100
H593        H  0.72332309  0.38688604  0.83655199     0.30200
H594        H  0.77126665  0.46069853  0.91920117     0.30400
Zr595      Zr  0.73879353  0.53652312  0.36549756     2.17500
O596        O  0.73453016  0.54151257  0.40715015    -0.51900
O597        O  0.69826042  0.54332156  0.37249685    -0.75100
O598        O  0.74380791  0.57629602  0.37834351    -0.81900
O599        O  0.75003830  0.47160888  0.36765369    -0.83700
O600        O  0.74058743  0.59680727  0.34566952    -0.79300
O601        O  0.75166547  0.50443903  0.38915967    -0.90900
O602        O  0.68524432  0.56063905  0.34073917    -0.76900
O603        O  0.72510982  0.55943534  0.33501299    -0.86400
O604        O  0.71636972  0.51102803  0.34157130    -0.86100
O605        O  0.77269292  0.55247685  0.34810290    -0.72800
O606        O  0.76375763  0.50764856  0.35064664    -0.85000
Zr607      Zr  0.76273902  0.52262587  0.27939410     2.26400
Zr608      Zr  0.75794238  0.57420999  0.31631528     2.06300
Zr609      Zr  0.74197824  0.48240101  0.32601630     2.10000
Zr610      Zr  0.70238989  0.53514973  0.31154833     1.78800
O611        O  0.76320548  0.44698099  0.32107259    -0.93800
O612        O  0.68483034  0.56276834  0.28567433    -0.41600
O613        O  0.72846175  0.50723539  0.29646393    -0.78200
O614        O  0.73514532  0.55055469  0.29122493    -0.96900
O615        O  0.78463224  0.54647222  0.30399500    -0.90200
O616        O  0.77593228  0.49787523  0.30919423    -0.93000
C617        C  0.68594003  0.55864810  0.36279631     1.00700
C618        C  0.75363092  0.48260573  0.38709930     1.13700
C619        C  0.74030838  0.59510379  0.36756514     1.04400
O620        O  0.74081931  0.60766543  0.29860295    -0.95200
O621        O  0.77452353  0.58555618  0.28006698    -0.90900
O622        O  0.77990143  0.55345093  0.25858769    -0.84100
C623        C  0.78228837  0.57488220  0.26238362     1.11100
O624        O  0.81366394  0.52519126  0.37273956    -0.97200
Zr625      Zr  0.79758952  0.52259856  0.33391314     1.88900
O626        O  0.80083929  0.51139533  0.26834824    -0.73800
O627        O  0.79002868  0.59743481  0.33013796    -0.53100
O628        O  0.82989881  0.54906649  0.33327112    -0.97700
O629        O  0.81519137  0.48743890  0.34743279    -0.55000
O630        O  0.82200549  0.51270182  0.30135628    -0.74300
C631        C  0.81969590  0.50922297  0.27952419     0.98000
O632        O  0.74660055  0.52518028  0.24071459    -0.63100
O633        O  0.71064622  0.45631252  0.33469335    -0.57900
O634        O  0.76357832  0.48427764  0.26659641    -0.94600
O635        O  0.73238630  0.47130222  0.28392182    -0.93100
O636        O  0.66975481  0.51306771  0.32512356    -0.93400
O637        O  0.67815209  0.51513412  0.28340590    -0.92200
C638        C  0.74479689  0.47369860  0.26548888     1.16900
H639        H  0.70427152  0.50415563  0.35037219     0.32800
H640        H  0.73010600  0.55921596  0.27805088     0.43700
H641        H  0.78544733  0.48559441  0.30354631     0.37200
H642        H  0.78097478  0.56216183  0.35892549     0.33700
H643        H  0.66874297  0.55769366  0.28362539     0.25500
H644        H  0.80370886  0.58818122  0.32651319     0.31400
H645        H  0.82833088  0.55876788  0.34724969     0.37300
H646        H  0.66020017  0.52400449  0.33387604     0.31800
H647        H  0.69731820  0.46613334  0.33807406     0.30600
H648        H  0.75161492  0.43574762  0.31554272     0.32300
H649        H  0.82597425  0.48284605  0.33517685     0.31300
H650        H  0.68847301  0.51117208  0.27054368     0.35300
H651        H  0.73953743  0.54050062  0.23980877     0.28000
H652        H  0.72475420  0.52872473  0.41236723     0.32200
H653        H  0.80090550  0.52070649  0.38288193     0.35100
H654        H  0.70678361  0.44886471  0.31974658     0.27700
H655        H  0.75984069  0.52575010  0.23019171     0.40600
H656        H  0.72800257  0.60152894  0.28908276     0.30600
H657        H  0.68374617  0.57699590  0.29499397     0.38300
H658        H  0.80278128  0.47587536  0.34653177     0.30100
H659        H  0.79074729  0.61033855  0.31926579     0.30200
H660        H  0.74976630  0.53895678  0.41426490     0.30400
Zr661      Zr  0.73305703  0.49554775  0.52930045     2.17500
O662        O  0.72926041  0.47645641  0.49195059    -0.51900
O663        O  0.74746442  0.53299066  0.51713307    -0.75100
O664        O  0.70341760  0.51321564  0.50669266    -0.81900
O665        O  0.78194308  0.46121228  0.53687420    -0.83700
O666        O  0.67092925  0.50717315  0.52674229    -0.79300
O667        O  0.77073112  0.49110137  0.51592809    -0.90900
O668        O  0.74462376  0.55644253  0.54835943    -0.76900
O669        O  0.71086380  0.52023742  0.55217496    -0.86400
O670        O  0.75901265  0.50782386  0.55889155    -0.86100
O671        O  0.70300047  0.47063722  0.54239065    -0.72800
O672        O  0.74473253  0.46117287  0.54916366    -0.85000
Zr673      Zr  0.71723582  0.47798957  0.61643652     2.26400
Zr674      Zr  0.68107316  0.49603875  0.56534180     2.06300
Zr675      Zr  0.77119558  0.47372757  0.57828869     2.10000
Zr676      Zr  0.73630821  0.53295654  0.58165240     1.78800
O677        O  0.78959896  0.43801264  0.58889202    -0.93800
O678        O  0.71284829  0.56719721  0.58453523    -0.41600
O679        O  0.74847675  0.49938908  0.60100968    -0.78200
O680        O  0.70445671  0.51139758  0.59611781    -0.96900
O681        O  0.69246645  0.46380739  0.58706109    -0.90200
O682        O  0.74030806  0.45173781  0.59480851    -0.93000
C683        C  0.74918050  0.55274421  0.52705065     1.00700
C684        C  0.78023576  0.47182911  0.51717701     1.13700
C685        C  0.68177247  0.51471175  0.50928951     1.04400
O686        O  0.65888417  0.53082520  0.57062613    -0.95200
O687        O  0.65681756  0.48907911  0.59716856    -0.90900
O688        O  0.67959460  0.49059484  0.62892024    -0.84100
C689        C  0.65994518  0.49113375  0.61885715     1.11100
O690        O  0.72347756  0.41510688  0.53128752    -0.97200
Zr691      Zr  0.71464022  0.43813215  0.56530586     1.88900
O692        O  0.70359536  0.44048058  0.62833733    -0.73800
O693        O  0.64758981  0.47411166  0.55258965    -0.53100
O694        O  0.68258364  0.41980499  0.54517396    -0.97700
O695        O  0.73782664  0.40576325  0.57752773    -0.55000
O696        O  0.68987068  0.42287282  0.59626623    -0.74300
C697        C  0.69008021  0.42600396  0.61834490     0.98000
O698        O  0.71645125  0.48245893  0.65830382    -0.63100
O699        O  0.80979503  0.48929265  0.57518806    -0.57900
O700        O  0.75002764  0.48630905  0.64109792    -0.94600
O701        O  0.78262166  0.48310030  0.61999535    -0.93100
O702        O  0.77461752  0.54813094  0.58923113    -0.93400
O703        O  0.73552339  0.55015273  0.62008254    -0.92200
C704        C  0.77187069  0.48729931  0.63929329     1.16900
H705        H  0.77200003  0.51588742  0.55270954     0.32800
H706        H  0.69559683  0.52148291  0.60581903     0.43700
H707        H  0.74592906  0.43970837  0.60460002     0.37200
H708        H  0.69403027  0.46531456  0.52930822     0.33700
H709        H  0.72361391  0.58007339  0.58219531     0.25500
H710        H  0.63696153  0.48540465  0.54582626     0.31400
H711        H  0.67973858  0.40552485  0.55371568     0.37300
H712        H  0.77727096  0.54633864  0.60598622     0.31800
H713        H  0.81558067  0.48332053  0.56031976     0.30600
H714        H  0.80426799  0.44274694  0.59621245     0.32300
H715        H  0.75311088  0.40859718  0.57086572     0.31300
H716        H  0.73396904  0.53704169  0.63061162     0.35300
H717        H  0.71056239  0.49807766  0.66122459     0.28000
H718        H  0.73261847  0.48839152  0.48047900     0.32200
H719        H  0.72665634  0.42640858  0.51913130     0.35100
H720        H  0.80765459  0.50585867  0.57265691     0.27700
H721        H  0.70412427  0.47216160  0.66357583     0.40600
H722        H  0.64270998  0.52572575  0.56987852     0.30600
H723        H  0.70313759  0.56687165  0.57045585     0.38300
H724        H  0.73172373  0.39238365  0.56882193     0.30100
H725        H  0.65282843  0.46476875  0.53933393     0.30200
H726        H  0.71275175  0.47303029  0.48990355     0.30400
Zr727      Zr  0.78691521  0.49225182  0.02276480     2.17500
O728        O  0.78253249  0.50555988  0.98338482    -0.51900
O729        O  0.77310852  0.45427449  0.01195667    -0.75100
O730        O  0.81538356  0.47730497  0.99646042    -0.81900
O731        O  0.74165139  0.53028727  0.03725079    -0.83700
O732        O  0.84950879  0.48633458  0.01279280    -0.79300
O733        O  0.74715685  0.49885091  0.01631066    -0.90900
O734        O  0.77848817  0.43197674  0.04321224    -0.76900
O735        O  0.81170944  0.46765481  0.04298248    -0.86400
O736        O  0.76522928  0.48034538  0.05528803    -0.86100
O737        O  0.81831088  0.51729238  0.03297490    -0.72800
O738        O  0.77811872  0.52708703  0.04403093    -0.85000
Zr739      Zr  0.81291001  0.51127762  0.10887737     2.26400
Zr740      Zr  0.84286643  0.49191857  0.05337165     2.06300
Zr741      Zr  0.75539754  0.51507980  0.07582931     2.10000
Zr742      Zr  0.79081676  0.45583880  0.07559045     1.78800
O743        O  0.73742782  0.54978787  0.09038490    -0.93800
O744        O  0.81801361  0.42434067  0.07657592    -0.41600
O745        O  0.78037706  0.48965511  0.09600860    -0.78200
O746        O  0.82398087  0.47785132  0.08702942    -0.96900
O747        O  0.83388804  0.52433847  0.07672267    -0.90200
O748        O  0.78781626  0.53719027  0.08952906    -0.93000
C749        C  0.77242167  0.43491394  0.02212413     1.00700
C750        C  0.74029879  0.51928266  0.01772127     1.13700
C751        C  0.83729044  0.47780825  0.99638885     1.04400
O752        O  0.86059853  0.45431690  0.05359320    -0.95200
O753        O  0.87167942  0.49906974  0.08181558    -0.90900
O754        O  0.85432961  0.51088812  0.11466532    -0.84100
C755        C  0.87212498  0.50691055  0.10240338     1.11100
O756        O  0.80302366  0.57517531  0.02508645    -0.97200
Zr757      Zr  0.80978288  0.54991087  0.05746019     1.88900
O758        O  0.82487732  0.54926882  0.12189243    -0.73800
O759        O  0.87712107  0.50897754  0.03679999    -0.53100
O760        O  0.84457921  0.56233466  0.03840717    -0.97700
O761        O  0.78757986  0.58446415  0.06488926    -0.55000
O762        O  0.83225442  0.56792076  0.08872293    -0.74300
C763        C  0.83447800  0.56545756  0.11064751     0.98000
O764        O  0.82197632  0.49724335  0.14730932    -0.63100
O765        O  0.71684385  0.49901988  0.07409137    -0.57900
O766        O  0.78199239  0.50512209  0.13668208    -0.94600
O767        O  0.74770104  0.50694484  0.11760803    -0.93100
O768        O  0.75568216  0.43673860  0.08713960    -0.93400
O769        O  0.79363374  0.44093403  0.11457375    -0.92200
C770        C  0.75992706  0.50367719  0.13615933     1.16900
H771        H  0.75161882  0.47199894  0.05063884     0.32800
H772        H  0.83433276  0.46857171  0.09598809     0.43700
H773        H  0.78331608  0.54943330  0.09979706     0.37200
H774        H  0.82560178  0.52264678  0.01913648     0.33700
H775        H  0.80945468  0.41142945  0.08331817     0.25500
H776        H  0.88112146  0.52230456  0.04672994     0.31400
H777        H  0.85718492  0.55701963  0.04849928     0.37300
H778        H  0.75035670  0.44546673  0.10078475     0.31800
H779        H  0.71900980  0.48229884  0.07530174     0.30600
H780        H  0.72079245  0.54705623  0.08836964     0.32300
H781        H  0.79875657  0.59555179  0.07151664     0.31300
H782        H  0.80022272  0.45368457  0.12388009     0.35300
H783        H  0.83462415  0.48621308  0.14521137     0.28000
H784        H  0.78102691  0.49168385  0.97353182     0.32200
H785        H  0.80063889  0.56472608  0.01173849     0.35100
H786        H  0.70983672  0.50353056  0.08893171     0.27700
H787        H  0.82905207  0.51046478  0.15551656     0.40600
H788        H  0.87711619  0.45739244  0.05609300     0.30600
H789        H  0.82010930  0.41981067  0.06024080     0.38300
H790        H  0.77721479  0.58096082  0.07776809     0.30100
H791        H  0.88953110  0.49780273  0.03948241     0.30200
H792        H  0.79734559  0.51258339  0.97918007     0.30400
Zr793      Zr  0.30981849  0.98838186  0.89857853     2.17500
O794        O  0.31718656  0.00407963  0.86058133    -0.51900
O795        O  0.31950080  0.94971012  0.88604101    -0.75100
O796        O  0.34999516  0.98663444  0.88932812    -0.81900
O797        O  0.24566030  0.99742663  0.89052080    -0.83700
O798        O  0.37009895  0.99351738  0.92230346    -0.79300
O799        O  0.27920577  0.99411978  0.87094039    -0.90900
O800        O  0.32784532  0.93134217  0.91920697    -0.76900
O801        O  0.33138347  0.97448834  0.93008668    -0.86400
O802        O  0.28352265  0.96446634  0.91871107    -0.86100
O803        O  0.32385437  0.02184476  0.91883363    -0.72800
O804        O  0.27937370  0.01222803  0.91144247    -0.85000
Zr805      Zr  0.28936263  0.00988433  0.98359325     2.26400
Zr806      Zr  0.34431634  0.00697532  0.95140748     2.06300
Zr807      Zr  0.25325417  0.98898418  0.93244377     2.10000
Zr808      Zr  0.30608508  0.95080502  0.95019172     1.78800
O809        O  0.21547244  0.00632334  0.93034320    -0.93800
O810        O  0.33728525  0.93108475  0.96981661    -0.41600
O811        O  0.27618194  0.97565424  0.96382457    -0.78200
O812        O  0.31906617  0.98352298  0.97294644    -0.96900
O813        O  0.31484508  0.03284511  0.96239667    -0.90200
O814        O  0.26659796  0.02288112  0.95214352    -0.93000
C815        C  0.32927242  0.93343662  0.89710763     1.00700
C816        C  0.25769843  0.99846300  0.87173359     1.13700
C817        C  0.36865601  0.98748539  0.90106269     1.04400
O818        O  0.37465856  0.98586574  0.97066299    -0.95200
O819        O  0.35238055  0.02162266  0.98988969    -0.90900
O820        O  0.31876107  0.02406303  0.00907905    -0.84100
C821        C  0.34031597  0.02729941  0.00741168     1.11100
O822        O  0.29555715  0.06173565  0.89246169    -0.97200
Zr823      Zr  0.29251131  0.04578522  0.93088653     1.88900
O824        O  0.27735764  0.04835824  0.99499299    -0.73800
O825        O  0.37036313  0.03836789  0.94301905    -0.53100
O826        O  0.31907016  0.07801517  0.93088333    -0.97700
O827        O  0.25717995  0.06305761  0.91680563    -0.55000
O828        O  0.28065819  0.06996173  0.96298802    -0.74300
C829        C  0.27563615  0.06742400  0.98429930     0.98000
O830        O  0.28707655  0.99148276  0.02096630    -0.48700
O831        O  0.23431139  0.95285592  0.92304836    -0.57900
O832        O  0.25019941  0.01032789  0.99371861    -0.94600
O833        O  0.23602176  0.98164747  0.97179581    -0.93100
O834        O  0.28102421  0.91907492  0.93915044    -0.93400
O835        O  0.29425197  0.93032299  0.98445626    -0.92200
C836        C  0.23738561  0.99299558  0.99117913     1.16900
H837        H  0.27780961  0.95227020  0.90885263     0.32800
H838        H  0.32679970  0.97840307  0.98672515     0.43700
H839        H  0.25372757  0.03198591  0.95706708     0.37200
H840        H  0.33411401  0.03037583  0.90911729     0.33700
H841        H  0.35082011  0.93350450  0.95998388     0.25500
H842        H  0.36095670  0.05231602  0.94470542     0.31400
H843        H  0.32048358  0.08297253  0.94720990     0.37300
H844        H  0.26641752  0.92224495  0.94707067     0.31800
H845        H  0.22863899  0.94725874  0.93800426     0.30600
H846        H  0.21387453  0.01481711  0.94509289     0.32300
H847        H  0.25050834  0.07109159  0.93024884     0.31300
H848        H  0.29709385  0.94122015  0.99736729     0.35300
H849        H  0.30285427  0.98668010  0.02490848     0.28000
H850        H  0.32568852  0.99208129  0.85209965     0.32200
H851        H  0.29709361  0.04824506  0.88213186     0.35100
H852        H  0.22032071  0.95723498  0.91444468     0.27700
H853        H  0.28359321  0.00397475  0.03203919     0.40600
H854        H  0.37341206  0.97015784  0.96423111     0.30600
H855        H  0.34059390  0.94019581  0.98394394     0.38300
H856        H  0.24671919  0.04996856  0.91383847     0.30100
H857        H  0.38111135  0.03896052  0.95631419     0.30200
H858        H  0.32843416  0.01656905  0.86323825     0.30400
Zr859      Zr  0.20667302  0.02480532  0.39374689     2.17500
O860        O  0.20433411  0.01901670  0.35206197    -0.51900
O861        O  0.18887590  0.06166440  0.38604997    -0.75100
O862        O  0.16745247  0.01646706  0.38164371    -0.81900
O863        O  0.27252465  0.02544963  0.38837587    -0.83700
O864        O  0.14848851  0.00566014  0.41367094    -0.79300
O865        O  0.23915400  0.02296809  0.36773075    -0.90900
O866        O  0.17940651  0.07589192  0.42116375    -0.76900
O867        O  0.18280727  0.03214601  0.42572322    -0.86400
O868        O  0.22851608  0.05067026  0.41778829    -0.86100
O869        O  0.19844482  0.98787530  0.40998769    -0.72800
O870        O  0.24018970  0.00507854  0.40604737    -0.85000
Zr871      Zr  0.23024733  0.99881815  0.47813416     2.26400
Zr872      Zr  0.17577184  0.99638946  0.44328639     2.06300
Zr873      Zr  0.26224819  0.03008349  0.43042929     2.10000
Zr874      Zr  0.20374990  0.05717897  0.44992177     1.78800
O875        O  0.30134512  0.01580262  0.43153473    -0.93800
O876        O  0.16841088  0.06837540  0.46910293    -0.41600
O877        O  0.23680381  0.03603034  0.46173173    -0.78200
O878        O  0.19680249  0.02102052  0.46862211    -0.96900
O879        O  0.20878862  0.97471808  0.45308934    -0.90200
O880        O  0.25506510  0.99280373  0.44627618    -0.93000
C881        C  0.17735261  0.07520921  0.39908214     1.00700
C882        C  0.26113887  0.02250932  0.36913092     1.13700
C883        C  0.14903979  0.01188677  0.39260550     1.04400
O884        O  0.14268794  0.01240674  0.46285681    -0.95200
O885        O  0.16972879  0.97929282  0.48044076    -0.90900
O886        O  0.20245837  0.98002194  0.50185911    -0.84100
C887        C  0.18146831  0.97450449  0.49854759     1.11100
O888        O  0.22758456  0.95167737  0.38300302    -0.97200
Zr889      Zr  0.23306149  0.96825116  0.42133652     1.88900
O890        O  0.24598563  0.96022811  0.48471754    -0.73800
O891        O  0.15529483  0.96111770  0.43387407    -0.53100
O892        O  0.21183201  0.93250503  0.42395600    -0.97700
O893        O  0.26875687  0.95952652  0.40180446    -0.55000
O894        O  0.25155985  0.94374412  0.44962339    -0.74300
C895        C  0.25301115  0.94364385  0.47173067     0.98000
O896        O  0.23010741  0.01463005  0.51721614    -0.63100
O897        O  0.27896497  0.06779040  0.42469054    -0.57900
O898        O  0.26818300  0.00865314  0.49024571    -0.94600
O899        O  0.27319206  0.04151127  0.47156165    -0.93100
O900        O  0.22372737  0.09346080  0.44552866    -0.93400
O901        O  0.20953040  0.07627875  0.48699445    -0.92200
C902        C  0.27440066  0.02946012  0.49024813     1.16900
H903        H  0.23233007  0.06457935  0.40980274     0.32800
H904        H  0.18814810  0.02361937  0.48250581     0.43700
H905        H  0.26925518  0.98568570  0.45088136     0.37200
H906        H  0.18976985  0.97857287  0.39913657     0.33700
H907        H  0.15612773  0.06615508  0.45741372     0.25500
H908        H  0.16182899  0.94963220  0.44444979     0.31400
H909        H  0.19567133  0.93682082  0.42126345     0.37300
H910        H  0.21140021  0.10504448  0.44547206     0.31800
H911        H  0.29389115  0.06728893  0.43290159     0.30600
H912        H  0.30996474  0.02608637  0.42128213     0.32300
H913        H  0.27434619  0.94532514  0.40903458     0.31300
H914        H  0.21329916  0.06372036  0.49765777     0.35300
H915        H  0.21440265  0.02044613  0.51964002     0.28000
H916        H  0.19435059  0.03141623  0.34635715     0.32200
H917        H  0.22671569  0.96502608  0.37268797     0.35100
H918        H  0.28296930  0.06814134  0.40816181     0.27700
H919        H  0.23166478  0.00149024  0.52770908     0.40600
H920        H  0.13915085  0.02662282  0.45446318     0.30600
H921        H  0.16543123  0.05644161  0.48065885     0.38300
H922        H  0.27958112  0.97153511  0.40723836     0.30100
H923        H  0.13961062  0.96372119  0.43966015     0.30200
H924        H  0.19531123  0.00480813  0.34962817     0.30400
Zr925      Zr  0.23132917  0.97393052  0.63314264     2.17500
O926        O  0.22489481  0.98392690  0.59277883    -0.51900
O927        O  0.19370586  0.95906308  0.62143859    -0.75100
O928        O  0.24269767  0.94015911  0.61250728    -0.81900
O929        O  0.24532495  0.03717185  0.63944083    -0.83700
O930        O  0.23327374  0.91353630  0.63859422    -0.79300
O931        O  0.24177346  0.00811475  0.61322483    -0.90900
O932        O  0.17825661  0.94372886  0.65331520    -0.76900
O933        O  0.21775534  0.94573643  0.65834082    -0.86400
O934        O  0.20891953  0.99461250  0.66061018    -0.86100
O935        O  0.26551516  0.95551184  0.64803204    -0.72800
O936        O  0.25758927  0.99996836  0.65174957    -0.85000
Zr937      Zr  0.25424616  0.97385592  0.72043875     2.26400
Zr938      Zr  0.25033215  0.92778148  0.67420648     2.06300
Zr939      Zr  0.23569196  0.02120410  0.67896966     2.10000
Zr940      Zr  0.19556875  0.96494582  0.68572291     1.78800
O941        O  0.24951435  0.06032880  0.68341690    -0.93800
O942        O  0.18130547  0.93035859  0.70410426    -0.41600
O943        O  0.22127163  0.99192276  0.70360692    -0.78200
O944        O  0.22827892  0.94639032  0.70342342    -0.96900
O945        O  0.27593564  0.95389446  0.69265492    -0.90200
O946        O  0.26873610  0.00314523  0.69567656    -0.93000
C947        C  0.18003355  0.94506033  0.63131049     1.00700
C948        C  0.24637410  0.02891140  0.61844252     1.13700
C949        C  0.23857678  0.91954864  0.61820238     1.04400
O950        O  0.22928448  0.89426648  0.68687736    -0.95200
O951        O  0.27001155  0.91230197  0.70730609    -0.90900
O952        O  0.26828685  0.93849055  0.73643568    -0.84100
C953        C  0.27459098  0.91925943  0.72789977     1.11100
O954        O  0.31136148  0.97813746  0.63205793    -0.97200
Zr955      Zr  0.29051794  0.98206282  0.66806167     1.88900
O956        O  0.29139454  0.98926568  0.73337279    -0.73800
O957        O  0.27977471  0.90306694  0.65797074    -0.53100
O958        O  0.32105930  0.95394671  0.67075375    -0.97700
O959        O  0.30822269  0.01744875  0.65524910    -0.55000
O960        O  0.31438945  0.98952661  0.70199815    -0.74300
C961        C  0.31096078  0.99213304  0.72370219     0.98000
O962        O  0.24738178  0.97178691  0.76180210    -0.63100
O963        O  0.19921611  0.04117990  0.67776043    -0.57900
O964        O  0.22744948  0.00023711  0.73606529    -0.94600
O965        O  0.24044683  0.03246408  0.72136055    -0.93100
O966        O  0.15999477  0.98424145  0.67592312    -0.93400
O967        O  0.17359958  0.97563379  0.71969399    -0.92200
C968        C  0.23441272  0.02053314  0.73907862     1.16900
H969        H  0.19642134  0.00238453  0.65305184     0.32800
H970        H  0.22357584  0.93554582  0.71490804     0.43700
H971        H  0.27771403  0.01487687  0.70337086     0.37200
H972        H  0.27455490  0.94817770  0.63625437     0.33700
H973        H  0.16557419  0.93393147  0.70915969     0.25500
H974        H  0.28083930  0.90723322  0.64153710     0.31400
H975        H  0.33543925  0.96296404  0.67041878     0.37300
H976        H  0.14786616  0.97284726  0.67909397     0.31800
H977        H  0.19909025  0.05045016  0.69214541     0.30600
H978        H  0.26640341  0.05893166  0.68345098     0.32300
H979        H  0.31406116  0.02493813  0.66952258     0.31300
H980        H  0.18481012  0.98267908  0.73053401     0.35300
H981        H  0.24032457  0.95662808  0.76443674     0.28000
H982        H  0.20829446  0.98703164  0.59118556     0.32200
H983        H  0.29998263  0.98172672  0.61988715     0.35100
H984        H  0.20103330  0.05250636  0.66534285     0.27700
H985        H  0.26270590  0.97106618  0.76917412     0.40600
H986        H  0.21433505  0.89517415  0.67876486     0.30600
H987        H  0.17910936  0.91915250  0.69134814     0.38300
H988        H  0.29529718  0.02716350  0.65023936     0.30100
H989        H  0.29427418  0.90877757  0.66492875     0.30200
H990        H  0.22730194  0.96971092  0.58372803     0.30400
Zr991      Zr  0.23973802  0.03914474  0.23112105     2.17500
O992        O  0.25285931  0.03521554  0.27090702    -0.51900
O993        O  0.20092909  0.02738506  0.24145984    -0.75100
O994        O  0.22902499  0.06875562  0.25720656    -0.81900
O995        O  0.27822308  0.99331010  0.22111637    -0.83700
O996        O  0.23026544  0.10222892  0.23792643    -0.79300
O997        O  0.24643761  0.00024969  0.24065966    -0.90900
O998        O  0.17845679  0.02943545  0.20956013    -0.76900
O999        O  0.21517703  0.06256163  0.20909887    -0.86400
O1000       O  0.22832992  0.01484122  0.19989426    -0.86100
O1001       O  0.26385674  0.07086463  0.22052418    -0.72800
O1002       O  0.27518324  0.02938362  0.21244330    -0.85000
Zr1003     Zr  0.26037635  0.05974498  0.14591102     2.26400
Zr1004     Zr  0.23877010  0.09382027  0.19754220     2.06300
Zr1005     Zr  0.26384135  0.00455841  0.18145547     2.10000
Zr1006     Zr  0.20375279  0.03877930  0.17769590     1.78800
O1007       O  0.29912326  0.98596115  0.16967415    -0.93800
O1008       O  0.17042551  0.06359530  0.17465569    -0.41600
O1009       O  0.23855853  0.02804174  0.15939241    -0.78200
O1010       O  0.22546665  0.07138273  0.16506130    -0.96900
O1011       O  0.27265276  0.08343690  0.17718116    -0.90200
O1012       O  0.28601353  0.03640590  0.16755084    -0.93000
C1013       C  0.18144031  0.02549376  0.23110529     1.00700
C1014       C  0.26678282  0.99296856  0.24016288     1.13700
C1015       C  0.22651170  0.09029187  0.25600580     1.04400
O1016       O  0.20171100  0.11033900  0.18802628    -0.95200
O1017       O  0.25412583  0.11798584  0.16742954    -0.90900
O1018       O  0.24688347  0.09700432  0.13554425    -0.84100
C1019       C  0.25340812  0.11552541  0.14544232     1.11100
O1020       O  0.32221213  0.05125750  0.23163583    -0.97200
Zr1021     Zr  0.29769895  0.06075658  0.19898982     1.88900
O1022       O  0.29786616  0.07664148  0.13635159    -0.73800
O1023       O  0.24800723  0.13171231  0.21305286    -0.53100
O1024       O  0.30989083  0.09424760  0.22124772    -0.97700
O1025       O  0.33245834  0.04003043  0.18888570    -0.55000
O1026       O  0.31650812  0.08420260  0.16997863    -0.74300
C1027       C  0.31416312  0.08632742  0.14804778     0.98000
O1028       O  0.26024288  0.06212277  0.10390822    -0.63100
O1029       O  0.24901514  0.96574088  0.18465793    -0.57900
O1030       O  0.25188319  0.02742632  0.12022729    -0.94600
O1031       O  0.25602852  0.99418746  0.13994754    -0.93100
O1032       O  0.18803533  0.00149552  0.16681268    -0.93400
O1033       O  0.18900248  0.03880806  0.13829261    -0.92200
C1034       C  0.25157468  0.00546846  0.12124105     1.16900
H1035       H  0.22014005  0.00148027  0.20503731     0.32800
H1036       H  0.21562594  0.08032272  0.15521990     0.43700
H1037       H  0.29855572  0.03140601  0.15806343     0.37200
H1038       H  0.26858158  0.07917847  0.23424172     0.33700
H1039       H  0.16936861  0.07124619  0.18991780     0.25500
H1040       H  0.26380280  0.13497611  0.20793724     0.31400
H1041       H  0.30118807  0.10704866  0.21444523     0.37300
H1042       H  0.17340550  0.00026470  0.17520131     0.31800
H1043       H  0.24415462  0.96442760  0.20089261     0.30600
H1044       H  0.29440799  0.97020413  0.16533386     0.32300
H1045       H  0.33493454  0.04282282  0.17228927     0.31300
H1046       H  0.20168393  0.04510027  0.12905412     0.35300
H1047       H  0.24534781  0.06904709  0.09972238     0.28000
H1048       H  0.23913729  0.03530421  0.28082048     0.32200
H1049       H  0.31934342  0.03480960  0.23429894     0.35100
H1050       H  0.23453825  0.96574218  0.17565335     0.27700
H1051       H  0.27173543  0.07395586  0.10013643     0.40600
H1052       H  0.19829899  0.12065934  0.20118569     0.30600
H1053       H  0.17498628  0.07592868  0.16407381     0.38300
H1054       H  0.32821354  0.02365807  0.18969757     0.30100
H1055       H  0.23824580  0.14238776  0.20424753     0.30200
H1056       H  0.26164723  0.04920200  0.27506911     0.30400
Zr1057     Zr  0.00765949  0.96722374  0.29575220     2.17500
O1058       O  0.00174944  0.00842355  0.29329773    -0.51900
O1059       O  0.04358242  0.98107976  0.27883683    -0.75100
O1060       O  0.01834963  0.98716181  0.33117849    -0.81900
O1061       O  0.99165275  0.96206358  0.23744049    -0.83700
O1062       O  0.02651831  0.96003901  0.35763472    -0.79300
O1063       O  0.97769706  0.97691360  0.26950691    -0.90900
O1064       O  0.06929509  0.95237259  0.28304311    -0.76900
O1065       O  0.03179826  0.94340746  0.31758472    -0.86400
O1066       O  0.02374655  0.94111964  0.26808129    -0.86100
O1067       O  0.98262417  0.95054655  0.32380994    -0.72800
O1068       O  0.97611654  0.94617553  0.27889298    -0.85000
Zr1069     Zr  0.99208677  0.87841774  0.30128059     2.26400
Zr1070     Zr  0.00750801  0.92557999  0.34459880     2.06300
Zr1071     Zr  0.99202959  0.92064781  0.25094938     2.10000
Zr1072     Zr  0.04790928  0.91743564  0.29109309     1.78800
O1073       O  0.95548670  0.91743422  0.23066889    -0.93800
O1074       O  0.07718821  0.92078922  0.32119381    -0.41600
O1075       O  0.01661091  0.89684680  0.27375444    -0.78200
O1076       O  0.02432468  0.89821248  0.31879024    -0.96900
O1077       O  0.97658071  0.90511490  0.32755135    -0.90200
O1078       O  0.96753882  0.90183512  0.27839423    -0.93000
C1079       C  0.06406630  0.97301768  0.27781806     1.00700
C1080       C  0.98373761  0.97955236  0.24884718     1.13700
C1081       C  0.02792935  0.98036111  0.34980142     1.04400
O1082       O  0.03786828  0.91506580  0.37141788    -0.95200
O1083       O  0.99708050  0.89091986  0.36372152    -0.90900
O1084       O  0.99363015  0.86092422  0.33875909    -0.84100
C1085       C  0.99314643  0.86981065  0.35901207     1.11100
O1086       O  0.92557568  0.95767922  0.29328061    -0.97200
Zr1087     Zr  0.95178450  0.92803968  0.30605885     1.88900
O1088       O  0.95545049  0.86469453  0.31665854    -0.73800
O1089       O  0.98413537  0.93987690  0.37616973    -0.53100
O1090       O  0.93346906  0.94784726  0.33803237    -0.97700
O1091       O  0.91910254  0.91490317  0.28285432    -0.55000
O1092       O  0.93698914  0.89635346  0.32918567    -0.74300
C1093       C  0.94048908  0.87463683  0.32953734     0.98000
O1094       O  0.01065705  0.84116737  0.29952022    -0.63100
O1095       O  0.00711446  0.91955199  0.21195636    -0.57900
O1096       O  0.98595496  0.85773735  0.26526276    -0.94600
O1097       O  0.00358965  0.88048050  0.23967103    -0.93100
O1098       O  0.07040062  0.90978331  0.25675126    -0.93400
O1099       O  0.06771703  0.88098475  0.29380539    -0.92200
C1100       C  0.99835812  0.86034777  0.24740778     1.16900
H1101       H  0.03205341  0.94829762  0.25577548     0.32800
H1102       H  0.03348906  0.88756690  0.32749614     0.43700
H1103       H  0.95607996  0.89250388  0.27066674     0.37200
H1104       H  0.97660102  0.96229089  0.33387950     0.33700
H1105       H  0.09183375  0.92162628  0.31278020     0.25500
H1106       H  0.97463365  0.92667234  0.38078995     0.31400
H1107       H  0.93588292  0.93775431  0.35141912     0.37300
H1108       H  0.06363667  0.89570124  0.24989508     0.31800
H1109       H  0.99566977  0.92776294  0.20250426     0.30600
H1110       H  0.95173903  0.93336153  0.22645096     0.32300
H1111       H  0.91870031  0.89806512  0.28440163     0.31300
H1112       H  0.05531333  0.86940416  0.29394192     0.35300
H1113       H  0.99901935  0.83012005  0.30487575     0.28000
H1114       H  0.01654248  0.01567636  0.29762731     0.32200
H1115       H  0.93512644  0.97164343  0.29231225     0.35100
H1116       H  0.02061363  0.92984112  0.21252599     0.27700
H1117       H  0.02257776  0.84145841  0.31176319     0.40600
H1118       H  0.05161861  0.91337749  0.36170874     0.30600
H1119       H  0.07527894  0.93629315  0.32793123     0.38300
H1120       H  0.92344207  0.91756124  0.26663782     0.30100
H1121       H  0.99505843  0.94216495  0.38915232     0.30200
H1122       H  0.99121303  0.01238305  0.30599404     0.30400
Zr1123     Zr  0.99967547  0.47578049  0.22236812     2.17500
O1124       O  0.01319507  0.51499022  0.22715340    -0.51900
O1125       O  0.96023735  0.48231325  0.23346478    -0.75100
O1126       O  0.98427120  0.50167520  0.19478783    -0.81900
O1127       O  0.03162913  0.46405822  0.27229941    -0.83700
O1128       O  0.98625608  0.48321426  0.16028231    -0.79300
O1129       O  0.00054531  0.48376334  0.26254571    -0.90900
O1130       O  0.93998055  0.44980739  0.22611727    -0.76900
O1131       O  0.97922341  0.45475455  0.19401388    -0.86400
O1132       O  0.98687891  0.44247065  0.24174215    -0.86100
O1133       O  0.02800635  0.46899489  0.19325730    -0.72800
O1134       O  0.03417401  0.45746846  0.23562320    -0.85000
Zr1135     Zr  0.02731981  0.39447728  0.19607915     2.26400
Zr1136     Zr  0.00678437  0.44762465  0.16504583     2.06300
Zr1137     Zr  0.02109851  0.42451588  0.25563964     2.10000
Zr1138     Zr  0.96681376  0.42120696  0.21250984     1.78800
O1139       O  0.05105381  0.41286808  0.28242719    -0.93800
O1140       O  0.93746227  0.42474866  0.18260283    -0.41600
O1141       O  0.00094306  0.40363181  0.22596822    -0.78200
O1142       O  0.99328245  0.41290252  0.18192043    -0.96900
O1143       O  0.03999197  0.42823442  0.17810440    -0.90200
O1144       O  0.04830444  0.41451002  0.22586789    -0.93000
C1145       C  0.94159598  0.47062245  0.23315687     1.00700
C1146       C  0.01971256  0.48287040  0.27273532     1.13700
C1147       C  0.97978362  0.49982827  0.17332076     1.04400
O1148       O  0.97743590  0.43536674  0.13743362    -0.95200
O1149       O  0.02448332  0.42307793  0.13715896    -0.90900
O1150       O  0.03201884  0.38938800  0.15462500    -0.84100
C1151       C  0.03134895  0.40234662  0.13687386     1.11100
O1152       O  0.07849714  0.48338916  0.22097182    -0.97200
Zr1153     Zr  0.06138844  0.44795824  0.20642261     1.88900
O1154       O  0.06763312  0.38619771  0.19134596    -0.73800
O1155       O  0.02543228  0.47262511  0.13761949    -0.53100
O1156       O  0.08259017  0.47044932  0.17858540    -0.97700
O1157       O  0.09134583  0.43788093  0.23392982    -0.55000
O1158       O  0.08281754  0.42039444  0.18217288    -0.74300
C1159       C  0.08218071  0.39837506  0.18043272     0.98000
O1160       O  0.01707292  0.35822248  0.17712732    -0.63100
O1161       O  0.99642712  0.42517266  0.28928539    -0.57900
O1162       O  0.02003753  0.36528666  0.22481009    -0.94600
O1163       O  0.01252910  0.38210276  0.25955952    -0.93100
O1164       O  0.94664426  0.40402390  0.24458673    -0.93400
O1165       O  0.95296676  0.38239980  0.20508757    -0.92200
C1166       C  0.01311696  0.36431790  0.24578072     1.16900
H1167       H  0.97692497  0.44612884  0.25444751     0.32800
H1168       H  0.98597231  0.40327649  0.17030193     0.43700
H1169       H  0.06067327  0.40538850  0.23191613     0.37200
H1170       H  0.03267173  0.48342322  0.18685159     0.33700
H1171       H  0.93593255  0.44139882  0.18010799     0.25500
H1172       H  0.04199321  0.46977451  0.13989051     0.31400
H1173       H  0.07213117  0.48290218  0.17397079     0.37300
H1174       H  0.95756281  0.39284950  0.25109410     0.31800
H1175       H  0.00007249  0.41093058  0.29758448     0.30600
H1176       H  0.06543610  0.41841274  0.27549788     0.32300
H1177       H  0.08700351  0.44577250  0.24842388     0.31300
H1178       H  0.95032623  0.38133447  0.18823655     0.35300
H1179       H  0.00032160  0.35905811  0.17451760     0.28000
H1180       H  0.99938691  0.52456791  0.22912750     0.32200
H1181       H  0.06657822  0.49508655  0.21832726     0.35100
H1182       H  0.00269769  0.43756285  0.29927574     0.27700
H1183       H  0.01921317  0.34567775  0.18821476     0.40600
H1184       H  0.97687871  0.44768904  0.12588944     0.30600
H1185       H  0.94469435  0.41893320  0.16835015     0.38300
H1186       H  0.10514281  0.44613817  0.22867871     0.30100
H1187       H  0.02181010  0.46589361  0.12227251     0.30200
H1188       H  0.01981536  0.51953786  0.21223107     0.30400
Zr1189     Zr  0.97210267  0.71745238  0.26067702     2.17500
O1190       O  0.96642950  0.75571412  0.24562690    -0.51900
O1191       O  0.98485624  0.72787617  0.29998815    -0.75100
O1192       O  0.94232637  0.74095910  0.27508782    -0.81900
O1193       O  0.02009737  0.71089473  0.22487603    -0.83700
O1194       O  0.90972523  0.71960543  0.27331862    -0.79300
O1195       O  0.01053267  0.73069984  0.25633755    -0.90900
O1196       O  0.98269692  0.69591564  0.32166771    -0.76900
O1197       O  0.94876755  0.69407396  0.28377298    -0.86400
O1198       O  0.99712812  0.68776080  0.27248491    -0.86100
O1199       O  0.94182896  0.70509991  0.23472659    -0.72800
O1200       O  0.98411919  0.69977028  0.22496515    -0.85000
Zr1201     Zr  0.95599257  0.63222193  0.23739142     2.26400
Zr1202     Zr  0.91881282  0.68146242  0.25852223     2.06300
Zr1203     Zr  0.00987386  0.67045313  0.23699298     2.10000
Zr1204     Zr  0.97321312  0.66416335  0.29556967     1.78800
O1205       O  0.03080687  0.65956199  0.20251832    -0.93800
O1206       O  0.94784020  0.66005384  0.32836836    -0.41600
O1207       O  0.98631336  0.64718178  0.26079517    -0.78200
O1208       O  0.94178051  0.65029099  0.27201514    -0.96900
O1209       O  0.93146141  0.66192953  0.22478281    -0.90200
O1210       O  0.97954312  0.65486465  0.21283252    -0.93000
C1211       C  0.98687610  0.71734871  0.31931312     1.00700
C1212       C  0.01906713  0.73008102  0.23637888     1.13700
C1213       C  0.92108672  0.73778963  0.27881397     1.04400
O1214       O  0.89842963  0.66870297  0.29249347    -0.95200
O1215       O  0.89542275  0.65136200  0.24165632    -0.90900
O1216       O  0.91687874  0.61926801  0.24231878    -0.84100
C1217       C  0.89778293  0.62965711  0.23964236     1.11100
O1218       O  0.95894858  0.72004917  0.17968883    -0.97200
Zr1219     Zr  0.95411507  0.68443303  0.20058012     1.88900
O1220       O  0.94723810  0.62161534  0.19771173    -0.73800
O1221       O  0.88313347  0.69832609  0.24481227    -0.53100
O1222       O  0.92079729  0.70118452  0.18175775    -0.97700
O1223       O  0.97961696  0.67534423  0.16866266    -0.55000
O1224       O  0.93112199  0.65316929  0.18301662    -0.74300
C1225       C  0.93270757  0.63126870  0.18433926     0.98000
O1226       O  0.95407645  0.59089884  0.24248258    -0.63100
O1227       O  0.04776762  0.67590881  0.25411307    -0.57900
O1228       O  0.98880652  0.60828112  0.24611737    -0.94600
O1229       O  0.02145522  0.62970161  0.24497219    -0.93100
O1230       O  0.00974990  0.65216099  0.31183688    -0.93400
O1231       O  0.97196058  0.62477778  0.30865847    -0.92200
C1232       C  0.01062838  0.61047591  0.24813463     1.16900
H1233       H  0.00995280  0.69364099  0.28138447     0.32800
H1234       H  0.93259214  0.63969063  0.28063914     0.43700
H1235       H  0.98550435  0.64583974  0.20022686     0.37200
H1236       H  0.93302683  0.71821780  0.23002117     0.33700
H1237       H  0.95795625  0.66168696  0.34208473     0.25500
H1238       H  0.88314002  0.69576458  0.22791506     0.31400
H1239       H  0.92083067  0.69483782  0.16585704     0.37300
H1240       H  0.01892033  0.66636489  0.31344881     0.31800
H1241       H  0.04732200  0.69123466  0.26151145     0.30600
H1242       H  0.02538058  0.67029119  0.19059631     0.32300
H1243       H  0.98526270  0.69014348  0.16282171     0.31300
H1244       H  0.96817226  0.61565817  0.29463810     0.35300
H1245       H  0.94741098  0.58873099  0.25794589     0.28000
H1246       H  0.98064587  0.76432669  0.24918726     0.32200
H1247       H  0.95607863  0.73224868  0.19125813     0.35100
H1248       H  0.04828514  0.66512506  0.26713590     0.27700
H1249       H  0.94219915  0.58523384  0.23153223     0.40600
H1250       H  0.88214091  0.66812247  0.28764302     0.30600
H1251       H  0.93845609  0.67411286  0.32842793     0.38300
H1252       H  0.96939781  0.66933874  0.15628621     0.30100
H1253       H  0.87080428  0.68825315  0.25051777     0.30200
H1254       H  0.96600767  0.75368044  0.22868362     0.30400
Zr1255     Zr  0.05718503  0.13651345  0.27399920     2.17500
O1256       O  0.06312745  0.09686359  0.26206756    -0.51900
O1257       O  0.06223473  0.12763056  0.31445507    -0.75100
O1258       O  0.09662008  0.12490996  0.27959672    -0.81900
O1259       O  0.99291432  0.13205157  0.26545042    -0.83700
O1260       O  0.11837831  0.15633170  0.27323455    -0.79300
O1261       O  0.02523036  0.11073340  0.26983449    -0.90900
O1262       O  0.07923199  0.15933861  0.32876042    -0.76900
O1263       O  0.08103289  0.16672190  0.28698830    -0.86400
O1264       O  0.03263698  0.16026757  0.29669402    -0.86100
O1265       O  0.07285236  0.15306975  0.23962888    -0.72800
O1266       O  0.02793736  0.14982012  0.24835147    -0.85000
Zr1267     Zr  0.04318375  0.22068483  0.24865781     2.26400
Zr1268     Zr  0.09562618  0.18461396  0.25373314     2.06300
Zr1269     Zr  0.00347084  0.17401944  0.27067566     2.10000
Zr1270     Zr  0.05782057  0.19027662  0.30967602     1.78800
O1271       O  0.96786361  0.17623203  0.24869980    -0.93800
O1272       O  0.09224680  0.20913024  0.32486492    -0.41600
O1273       O  0.02875278  0.20403479  0.28364591    -0.78200
O1274       O  0.07202169  0.20956225  0.27593757    -0.96900
O1275       O  0.06717115  0.19655038  0.22677057    -0.90200
O1276       O  0.01847260  0.19035699  0.23608406    -0.93000
C1277       C  0.07671256  0.13744403  0.32807503     1.00700
C1278       C  0.00376673  0.11255441  0.26559573     1.13700
C1279       C  0.11569067  0.13581146  0.28027651     1.04400
O1280       O  0.12939133  0.20256293  0.27112359    -0.95200
O1281       O  0.10685289  0.22183238  0.23965956    -0.90900
O1282       O  0.07485023  0.24340050  0.23592549    -0.84100
C1283       C  0.09634653  0.24009860  0.23370823     1.11100
O1284       O  0.04130137  0.12624426  0.20200276    -0.97200
Zr1285     Zr  0.04288258  0.16632986  0.21406152     1.88900
O1286       O  0.03377856  0.23083656  0.20913081    -0.73800
O1287       O  0.11884577  0.17104775  0.22172597    -0.53100
O1288       O  0.07279418  0.16147373  0.18546259    -0.97700
O1289       O  0.00845766  0.15589328  0.19211487    -0.55000
O1290       O  0.03381666  0.19807911  0.18779301    -0.74300
C1291       C  0.03093808  0.21986804  0.18998851     0.98000
O1292       O  0.04226502  0.25886205  0.26584681    -0.63100
O1293       O  0.97997824  0.16632127  0.30419092    -0.57900
O1294       O  0.00406629  0.23154422  0.24711231    -0.94600
O1295       O  0.99136946  0.21522953  0.27896433    -0.93100
O1296       O  0.03431067  0.18242798  0.34315133    -0.93400
O1297       O  0.04889133  0.22431735  0.33244177    -0.92200
C1298       C  0.99359289  0.23310539  0.26598106     1.16900
H1299       H  0.02599217  0.15200467  0.30928566     0.32800
H1300       H  0.08080113  0.22296777  0.28059962     0.43700
H1301       H  0.00610765  0.19552319  0.22633960     0.37200
H1302       H  0.08232408  0.14198600  0.23178941     0.33700
H1303       H  0.10482160  0.20293992  0.31534018     0.25500
H1304       H  0.13245920  0.18118667  0.22197238     0.31400
H1305       H  0.07518928  0.17691750  0.17909039     0.37300
H1306       H  0.04526005  0.18232454  0.35628472     0.31800
H1307       H  0.98853540  0.17327537  0.31732489     0.30600
H1308       H  0.96943823  0.16444977  0.23642840     0.32300
H1309       H  0.99861932  0.16962871  0.19257030     0.31300
H1310       H  0.03267531  0.22765602  0.32875556     0.35300
H1311       H  0.04357477  0.26961128  0.25286362     0.28000
H1312       H  0.06921972  0.08910854  0.27591091     0.32200
H1313       H  0.04430349  0.12615363  0.18523833     0.35100
H1314       H  0.96641192  0.17622477  0.30223560     0.27700
H1315       H  0.05685112  0.26048600  0.27456614     0.40600
H1316       H  0.14256989  0.19511470  0.26354242     0.30600
H1317       H  0.09113598  0.22536587  0.32035033     0.38300
H1318       H  0.00034021  0.14472917  0.20184926     0.30100
H1319       H  0.12475529  0.15601688  0.22667564     0.30200
H1320       H  0.07606030  0.09719165  0.25116080     0.30400
Zr1321     Zr  0.78981985  0.73153119  0.46844623     2.17500
O1322       O  0.75057744  0.74508900  0.46618472    -0.51900
O1323       O  0.78218459  0.69203169  0.47885895    -0.75100
O1324       O  0.76757259  0.71516501  0.43792101    -0.81900
O1325       O  0.79429316  0.76159833  0.52064118    -0.83700
O1326       O  0.78741215  0.72114783  0.40505035    -0.79300
O1327       O  0.77985516  0.72879595  0.50780130    -0.90900
O1328       O  0.81577268  0.67276319  0.47686697    -0.76900
O1329       O  0.81400725  0.71207970  0.44265143    -0.86400
O1330       O  0.82117479  0.72027418  0.49208300    -0.86100
O1331       O  0.79861135  0.76020613  0.44049548    -0.72800
O1332       O  0.80491658  0.76710683  0.48385812    -0.85000
Zr1333     Zr  0.87253368  0.76163704  0.45339709     2.26400
Zr1334     Zr  0.82337555  0.74024273  0.41498995     2.06300
Zr1335     Zr  0.83592419  0.75548140  0.50817648     2.10000
Zr1336     Zr  0.84529976  0.70052721  0.46573666     1.78800
O1337       O  0.84306196  0.78863497  0.53303891    -0.93800
O1338       O  0.84643902  0.67077122  0.43604351    -0.41600
O1339       O  0.86017053  0.73530729  0.48173857    -0.78200
O1340       O  0.85639668  0.72716477  0.43628972    -0.96900
O1341       O  0.84108223  0.77369714  0.43067881    -0.90200
O1342       O  0.84878208  0.78265177  0.47957864    -0.93000
C1343       C  0.79414818  0.67375476  0.48093426     1.00700
C1344       C  0.77713426  0.74741243  0.51849621     1.13700
C1345       C  0.77045933  0.71287225  0.41625900     1.04400
O1346       O  0.83417766  0.71123295  0.38678234    -0.95200
O1347       O  0.85237998  0.75840435  0.39250775    -0.90900
O1348       O  0.88486669  0.75700926  0.41388275    -0.84100
C1349       C  0.87402973  0.76077000  0.39501526     1.11100
O1350       O  0.78078315  0.81203849  0.46495131    -0.97200
Zr1351     Zr  0.81734837  0.79437373  0.45565576     1.88900
O1352       O  0.88033372  0.80093234  0.44207898    -0.73800
O1353       O  0.80472359  0.76193764  0.38445848    -0.53100
O1354       O  0.79735893  0.81231581  0.42352768    -0.97700
O1355       O  0.82365057  0.82599584  0.48275193    -0.55000
O1356       O  0.84587221  0.81613088  0.43315280    -0.74300
C1357       C  0.86788715  0.81543447  0.43126672     0.98000
O1358       O  0.91424087  0.76169144  0.45121453    -0.63100
O1359       O  0.83409626  0.73360635  0.54361606    -0.57900
O1360       O  0.89784146  0.75285033  0.48590231    -0.94600
O1361       O  0.87746093  0.74872507  0.51893374    -0.93100
O1362       O  0.86256099  0.68293943  0.49948520    -0.93400
O1363       O  0.88442061  0.68701067  0.46129616    -0.92200
C1364       C  0.89656006  0.74811226  0.50749138     1.16900
H1365       H  0.81686555  0.71006711  0.50428344     0.32800
H1366       H  0.86707919  0.71979961  0.42601891     0.43700
H1367       H  0.85704727  0.79542540  0.48636056     0.37200
H1368       H  0.78467451  0.76423638  0.43245461     0.33700
H1369       H  0.85039119  0.65665600  0.44443832     0.25500
H1370       H  0.78811843  0.76126113  0.38762983     0.31400
H1371       H  0.78453796  0.80192490  0.41931325     0.37300
H1372       H  0.87043762  0.69567814  0.50773446     0.31800
H1373       H  0.81768168  0.72989264  0.54554685     0.30600
H1374       H  0.83843846  0.80196472  0.52375401     0.32300
H1375       H  0.81273941  0.82331611  0.49541558     0.31300
H1376       H  0.89314469  0.70058706  0.45626798     0.35300
H1377       H  0.91818107  0.77390267  0.44022860     0.28000
H1378       H  0.74233782  0.73718775  0.47861543     0.32200
H1379       H  0.77161969  0.79962132  0.47180459     0.35100
H1380       H  0.84128661  0.71877555  0.53969119     0.27700
H1381       H  0.91821249  0.74726449  0.44311323     0.40600
H1382       H  0.83692387  0.69734278  0.39597412     0.30600
H1383       H  0.83028261  0.66849570  0.43120465     0.38300
H1384       H  0.81765815  0.83962353  0.47475058     0.30100
H1385       H  0.80901166  0.77805073  0.38774849     0.30200
H1386       H  0.75142245  0.76135687  0.47093443     0.30400
Zr1387     Zr  0.38539175  0.73486479  0.55058880     2.17500
O1388       O  0.42608787  0.74460363  0.55215827    -0.51900
O1389       O  0.38860124  0.69642522  0.56645658    -0.75100
O1390       O  0.39720869  0.73342680  0.59167520    -0.81900
O1391       O  0.37939089  0.73392549  0.48673936    -0.83700
O1392       O  0.37315823  0.75693887  0.61132368    -0.79300
O1393       O  0.40385496  0.72246481  0.51514940    -0.90900
O1394       O  0.35556680  0.69344370  0.58634781    -0.76900
O1395       O  0.35691589  0.73893173  0.57838683    -0.86400
O1396       O  0.35305435  0.71341745  0.53567479    -0.86100
O1397       O  0.37927432  0.77560515  0.55528589    -0.72800
O1398       O  0.37058650  0.75388917  0.51730055    -0.85000
Zr1399     Zr  0.30538821  0.77585286  0.53874032     2.26400
Zr1400     Zr  0.35073223  0.77841301  0.58449723     2.06300
Zr1401     Zr  0.33860035  0.73319758  0.50206685     2.10000
Zr1402     Zr  0.32606591  0.71632569  0.56633244     1.78800
O1403       O  0.33199834  0.74140959  0.46149438    -0.93800
O1404       O  0.31458094  0.70880708  0.60582673    -0.41600
O1405       O  0.31186559  0.73556047  0.53296186    -0.78200
O1406       O  0.31762181  0.75650374  0.57298553    -0.96900
O1407       O  0.33811098  0.79676275  0.55047481    -0.90200
O1408       O  0.33143383  0.77332257  0.50736165    -0.93000
C1409       C  0.37654028  0.68775793  0.58266429     1.00700
C1410       C  0.39988154  0.72881476  0.49436135     1.13700
C1411       C  0.38850320  0.74139665  0.61049034     1.04400
O1412       O  0.32964353  0.78085403  0.62048203    -0.95200
O1413       O  0.32851291  0.81315103  0.58461784    -0.90900
O1414       O  0.29498546  0.79988145  0.57066896    -0.84100
C1415       C  0.30731139  0.81568736  0.57962939     1.11100
O1416       O  0.40434490  0.80271083  0.51189281    -0.97200
Zr1417     Zr  0.36463733  0.79384179  0.52067916     1.88900
O1418       O  0.30180559  0.81325075  0.52056519    -0.73800
O1419       O  0.37997860  0.80471545  0.59918687    -0.53100
O1420       O  0.37906434  0.82816214  0.54011591    -0.97700
O1421       O  0.37456015  0.79525049  0.48001717    -0.55000
O1422       O  0.33721568  0.82310080  0.50804391    -0.74300
C1423       C  0.31561036  0.82692582  0.51036081     0.98000
O1424       O  0.26510218  0.77329447  0.54972406    -0.63100
O1425       O  0.33829327  0.69389318  0.48767941    -0.57900
O1426       O  0.28171860  0.76586396  0.50665208    -0.94600
O1427       O  0.29489224  0.73076079  0.49726061    -0.93100
O1428       O  0.31716204  0.68026623  0.54679460    -0.93400
O1429       O  0.28573660  0.70901902  0.57370892    -0.92200
C1430       C  0.27834267  0.74566707  0.49903971     1.16900
H1431       H  0.35712824  0.69777301  0.53217044     0.32800
H1432       H  0.30599106  0.75777251  0.58466506     0.43700
H1433       H  0.32505214  0.77985616  0.49351579     0.37200
H1434       H  0.39317576  0.78303959  0.56042013     0.33700
H1435       H  0.31600936  0.69204940  0.60763002     0.25500
H1436       H  0.37483850  0.81998964  0.59414185     0.31400
H1437       H  0.36631633  0.83343313  0.54993916     0.37300
H1438       H  0.30449842  0.68399020  0.53602532     0.31800
H1439       H  0.33058180  0.68501725  0.49980189     0.30600
H1440       H  0.34418793  0.75242786  0.45748372     0.32300
H1441       H  0.37414702  0.81169581  0.47617342     0.31300
H1442       H  0.27796531  0.72349239  0.56976889     0.35300
H1443       H  0.25923567  0.75885161  0.54287786     0.28000
H1444       H  0.43005464  0.74991814  0.53655199     0.32200
H1445       H  0.41338931  0.79478104  0.52388161     0.35100
H1446       H  0.32714814  0.69394266  0.47471479     0.27700
H1447       H  0.26515464  0.77021082  0.56647276     0.40600
H1448       H  0.34148358  0.78099741  0.63280299     0.30600
H1449       H  0.32703467  0.71537118  0.61555861     0.38300
H1450       H  0.36118372  0.78859561  0.47175397     0.30100
H1451       H  0.37783787  0.80493684  0.61609605     0.30200
H1452       H  0.42701050  0.75861108  0.56186724     0.30400
Zr1453     Zr  0.61174310  0.67138873  0.48905651     2.17500
O1454       O  0.65238239  0.66192470  0.49078798    -0.51900
O1455       O  0.61999138  0.65617960  0.45093128    -0.75100
O1456       O  0.61635421  0.63165477  0.49924483    -0.81900
O1457       O  0.62837667  0.73569656  0.49463570    -0.83700
O1458       O  0.58075069  0.61627723  0.50015812    -0.79300
O1459       O  0.64191513  0.69939554  0.49579397    -0.90900
O1460       O  0.58631099  0.65283865  0.43165141    -0.76900
O1461       O  0.57730645  0.65188061  0.47958233    -0.86400
O1462       O  0.59300273  0.69641933  0.46273845    -0.86100
O1463       O  0.59303867  0.66442570  0.52535764    -0.72800
O1464       O  0.60435703  0.70570082  0.50995558    -0.85000
Zr1465     Zr  0.53267304  0.70544366  0.51173181     2.26400
Zr1466     Zr  0.55711314  0.64661719  0.51487839     2.06300
Zr1467     Zr  0.58572925  0.73136448  0.48432653     2.10000
Zr1468     Zr  0.55832416  0.67591283  0.45368828     1.78800
O1469       O  0.58844794  0.77127350  0.49658075    -0.93800
O1470       O  0.53815243  0.64018534  0.44525004    -0.41600
O1471       O  0.55146332  0.71049704  0.47528603    -0.78200
O1472       O  0.53693010  0.67095194  0.48902218    -0.96900
O1473       O  0.55226732  0.68068899  0.53670756    -0.90200
O1474       O  0.56721750  0.72557054  0.52085471    -0.93000
C1475       C  0.60786581  0.64854760  0.43398917     1.00700
C1476       C  0.64491407  0.72108637  0.49821967     1.13700
C1477       C  0.60244367  0.61468351  0.49780853     1.04400
O1478       O  0.53065730  0.61659506  0.50229523    -0.95200
O1479       O  0.52117740  0.64836085  0.53649861    -0.90900
O1480       O  0.50664226  0.68424298  0.53465528    -0.84100
C1481       C  0.50641546  0.66380603  0.54197497     1.11100
O1482       O  0.62490564  0.69095977  0.56030766    -0.97200
Zr1483     Zr  0.58662857  0.69982500  0.54611373     1.88900
O1484       O  0.52596448  0.72312664  0.54913291    -0.73800
O1485       O  0.56698648  0.62411457  0.54863246    -0.53100
O1486       O  0.58561710  0.67693638  0.58088101    -0.97700
O1487       O  0.60632875  0.73429924  0.55962418    -0.55000
O1488       O  0.55716013  0.71583349  0.57138281    -0.74300
C1489       C  0.53672858  0.72356308  0.56852533     0.98000
O1490       O  0.49353775  0.70613084  0.49715462    -0.63100
O1491       O  0.59865294  0.74445403  0.44691274    -0.57900
O1492       O  0.52685613  0.74471456  0.50352571    -0.94600
O1493       O  0.54689779  0.74713215  0.47120510    -0.93100
O1494       O  0.56082793  0.69399805  0.41619771    -0.93400
O1495       O  0.52225339  0.68559696  0.43486471    -0.92200
C1496       C  0.52805916  0.75041029  0.48263660     1.16900
H1497       H  0.60213377  0.69909821  0.44922572     0.32800
H1498       H  0.52205930  0.66443312  0.48552963     0.43700
H1499       H  0.56430135  0.74002253  0.52847727     0.37200
H1500       H  0.60215944  0.65436954  0.53480298     0.33700
H1501       H  0.53464928  0.64068900  0.42853736     0.25500
H1502       H  0.55721485  0.61028877  0.54723732     0.31400
H1503       H  0.57590551  0.66358897  0.57669125     0.37300
H1504       H  0.56730937  0.70935903  0.41950598     0.31800
H1505       H  0.58758551  0.75648000  0.44257770     0.30600
H1506       H  0.60503637  0.77428514  0.49863609     0.32300
H1507       H  0.59445545  0.74632354  0.55968811     0.31300
H1508       H  0.51028190  0.68044908  0.44563321     0.35300
H1509       H  0.48859527  0.68999925  0.49529088     0.28000
H1510       H  0.65482617  0.65492713  0.50607037     0.32200
H1511       H  0.63533970  0.69731263  0.54863083     0.35100
H1512       H  0.61309519  0.75281652  0.45021868     0.27700
H1513       H  0.48413151  0.71242991  0.50982409     0.40600
H1514       H  0.53591691  0.61203870  0.48674381     0.30600
H1515       H  0.54995042  0.62815657  0.44667397     0.38300
H1516       H  0.61655252  0.73846638  0.54679650     0.30100
H1517       H  0.58270695  0.61848464  0.54593355     0.30200
H1518       H  0.65450709  0.64921656  0.47960333     0.30400
Zr1519     Zr  0.03385119  0.77905303  0.49932914     2.17500
O1520       O  0.99336518  0.77787612  0.50876857    -0.51900
O1521       O  0.02606911  0.76294553  0.46102074    -0.75100
O1522       O  0.00584900  0.80435248  0.48399386    -0.81900
O1523       O  0.04537790  0.73915981  0.54318079    -0.83700
O1524       O  0.02574899  0.83709987  0.47753823    -0.79300
O1525       O  0.02709380  0.74019258  0.50964633    -0.90900
O1526       O  0.05730962  0.76932100  0.43914418    -0.76900
O1527       O  0.05499145  0.80168511  0.47362383    -0.86400
O1528       O  0.06701695  0.75688284  0.49143478    -0.86100
O1529       O  0.04150845  0.81363313  0.52116879    -0.72800
O1530       O  0.05184512  0.77422830  0.53659222    -0.85000
Zr1531     Zr  0.11626367  0.80943565  0.52280821     2.26400
Zr1532     Zr  0.06355462  0.83563020  0.49502109     2.06300
Zr1533     Zr  0.08480219  0.75152693  0.52883542     2.10000
Zr1534     Zr  0.08830597  0.78043566  0.46584494     1.78800
O1535       O  0.09710740  0.73521439  0.56534586    -0.93800
O1536       O  0.09276348  0.80702189  0.43414031    -0.41600
O1537       O  0.10595901  0.77492682  0.50271426    -0.78200
O1538       O  0.09827617  0.81567034  0.48579138    -0.96900
O1539       O  0.08273184  0.83044812  0.53082045    -0.90200
O1540       O  0.09549759  0.78628054  0.54934617    -0.93000
C1541       C  0.03650844  0.76258687  0.44162391     1.00700
C1542       C  0.02686478  0.73581136  0.53092446     1.13700
C1543       C  0.00788806  0.82432306  0.47572456     1.04400
O1544       O  0.07368304  0.85395583  0.45903322    -0.95200
O1545       O  0.08975706  0.86520412  0.50666917    -0.90900
O1546       O  0.12426173  0.84946199  0.51451183    -0.84100
C1547       C  0.11097775  0.86672750  0.51199754     1.11100
O1548       O  0.02725486  0.79725039  0.57690471    -0.97200
Zr1549     Zr  0.06203299  0.80847484  0.55714077     1.88900
O1550       O  0.12302930  0.82885674  0.55987351    -0.73800
O1551       O  0.04265727  0.86965983  0.50734096    -0.53100
O1552       O  0.03845049  0.84053735  0.56938715    -0.97700
O1553       O  0.07359145  0.79158703  0.59367528    -0.55000
O1554       O  0.08797339  0.83732854  0.57383618    -0.74300
C1555       C  0.10973971  0.84062682  0.57297343     0.98000
O1556       O  0.15719374  0.81497121  0.51683299    -0.63100
O1557       O  0.08433192  0.71219835  0.51459626    -0.57900
O1558       O  0.14501619  0.77935375  0.52230981    -0.94600
O1559       O  0.12713029  0.74467098  0.52369805    -0.93100
O1560       O  0.10035864  0.74267375  0.45267660    -0.93400
O1561       O  0.12617646  0.77723182  0.44888887    -0.92200
C1562       C  0.14536037  0.75736734  0.52156302     1.16900
H1563       H  0.06315294  0.74245094  0.48409840     0.32800
H1564       H  0.10802615  0.82497176  0.47629997     0.43700
H1565       H  0.10452958  0.78329347  0.56300987     0.37200
H1566       H  0.02724817  0.82134009  0.52428843     0.33700
H1567       H  0.09599250  0.79726680  0.42050939     0.25500
H1568       H  0.02748666  0.86409309  0.51233389     0.31400
H1569       H  0.04153087  0.85258976  0.55797030     0.37300
H1570       H  0.08960940  0.73843167  0.44003840     0.31800
H1571       H  0.08813580  0.70292209  0.52826444     0.30600
H1572       H  0.11305494  0.74064556  0.56764088     0.32300
H1573       H  0.06318764  0.77840153  0.59584780     0.31300
H1574       H  0.13641972  0.77316777  0.46188810     0.35300
H1575       H  0.15845254  0.82275141  0.50182541     0.28000
H1576       H  0.98816814  0.76202048  0.50568766     0.32200
H1577       H  0.01532051  0.79721495  0.56466920     0.35100
H1578       H  0.06799595  0.70876115  0.51138244     0.27700
H1579       H  0.16200126  0.82660217  0.52845494     0.40600
H1580       H  0.06146511  0.84922855  0.44802177     0.30600
H1581       H  0.07713519  0.81287214  0.43122364     0.38300
H1582       H  0.06898377  0.80292221  0.60554527     0.30100
H1583       H  0.05021478  0.87476114  0.52186335     0.30200
H1584       H  0.99280196  0.78013002  0.52564887     0.30400
C1585       C  0.16847124  0.74698157  0.51650443    -0.05800
C1586       C  0.17794765  0.72923841  0.52966663    -0.05800
C1587       C  0.20110633  0.72268827  0.52689827    -0.23900
C1588       C  0.21528522  0.73338219  0.51055728     0.18300
C1589       C  0.20541448  0.75002255  0.49615371     0.15500
C1590       C  0.18238699  0.75684033  0.49937120    -0.19000
C1591       C  0.21907431  0.76048456  0.47948035    -0.20800
C1592       C  0.24261149  0.75593521  0.47819319    -0.13400
C1593       C  0.25349112  0.74085422  0.49352458     0.03300
C1594       C  0.23931731  0.72892381  0.50924722    -0.25500
H1595       H  0.16782932  0.72124810  0.54290939     0.08400
H1596       H  0.20811365  0.70967879  0.53803820     0.12000
H1597       H  0.17541635  0.77042563  0.48888973     0.11900
H1598       H  0.21179819  0.77322325  0.46817697     0.11700
H1599       H  0.25283461  0.76595830  0.46650123     0.12200
H1600       H  0.24725579  0.71789045  0.52186387     0.14200
C1601       C  0.42094646  0.73306815  0.48016458    -0.05800
C1602       C  0.43209755  0.71503456  0.46869437    -0.05800
C1603       C  0.45488511  0.71742291  0.46108577    -0.23900
C1604       C  0.46760015  0.73755356  0.46575711     0.18300
C1605       C  0.45649036  0.75602764  0.47669103     0.15500
C1606       C  0.43320105  0.75385578  0.48327607    -0.19000
C1607       C  0.46950108  0.77548997  0.48290087    -0.20800
C1608       C  0.49355014  0.77542531  0.48109696    -0.13400
C1609       C  0.50527560  0.75639772  0.47201168     0.03300
C1610       C  0.49174218  0.73845586  0.46232837    -0.25500
H1611       H  0.42359820  0.69863573  0.46670922     0.08400
H1612       H  0.46313555  0.70282346  0.45311737     0.12000
H1613       H  0.42524008  0.76765284  0.49277622     0.11900
H1614       H  0.46133848  0.78994162  0.49123757     0.11700
H1615       H  0.50317088  0.78933108  0.48904632     0.12200
H1616       H  0.50033300  0.72341375  0.45569448     0.14200
C1617       C  0.91832962  0.73817125  0.51756579    -0.05800
C1618       C  0.92770601  0.71951893  0.50539309    -0.05800
C1619       C  0.95012205  0.71212258  0.50934265    -0.23900
C1620       C  0.96422246  0.72317758  0.52564402     0.18300
C1621       C  0.95494855  0.74074720  0.53958985     0.15500
C1622       C  0.93189319  0.74827454  0.53550808    -0.19000
C1623       C  0.96962377  0.75133658  0.55605880    -0.20800
C1624       C  0.99346703  0.74662278  0.55650510    -0.13400
C1625       C  0.00325691  0.73136072  0.54039143     0.03300
C1626       C  0.98795742  0.71834857  0.52647519    -0.25500
H1627       H  0.91791905  0.71129613  0.49166750     0.08400
H1628       H  0.95684991  0.69846996  0.49862792     0.12000
H1629       H  0.92523957  0.76277219  0.54505475     0.11900
H1630       H  0.96304191  0.76455032  0.56739275     0.11700
H1631       H  0.00449941  0.75691120  0.56755137     0.12200
H1632       H  0.99499201  0.70647972  0.51393953     0.14200
C1633       C  0.75239912  0.75232331  0.52408519    -0.05800
C1634       C  0.74110038  0.77153634  0.51496826    -0.05800
C1635       C  0.71731496  0.77078675  0.50948132    -0.23900
C1636       C  0.70409740  0.75083639  0.51307786     0.18300
C1637       C  0.71494152  0.73245532  0.52433910     0.15500
C1638       C  0.73853191  0.73346593  0.53006411    -0.19000
C1639       C  0.70248206  0.71253854  0.52844926    -0.20800
C1640       C  0.67993374  0.71019098  0.52065023    -0.13400
C1641       C  0.66857790  0.72744708  0.50802650     0.03300
C1642       C  0.68080719  0.74834270  0.50492546    -0.25500
H1643       H  0.75105122  0.78618669  0.50967573     0.08400
H1644       H  0.70961678  0.78535246  0.50111119     0.12000
H1645       H  0.74673309  0.71833085  0.53688889     0.11900
H1646       H  0.71041089  0.69831950  0.53725592     0.11700
H1647       H  0.67145506  0.69415944  0.52428729     0.12200
H1648       H  0.67274613  0.76208302  0.49554145     0.14200
C1649       C  0.99545219  0.73035556  0.34011194    -0.05800
C1650       C  0.00958644  0.74971299  0.33765237    -0.05800
C1651       C  0.02014514  0.76018788  0.35692032    -0.23900
C1652       C  0.01646352  0.75187184  0.37921819     0.18300
C1653       C  0.00114380  0.73338685  0.38211362     0.15500
C1654       C  0.99099831  0.72259047  0.36261208    -0.19000
C1655       C  0.99654226  0.72576619  0.40446916    -0.20800
C1656       C  0.00750785  0.73581928  0.42366748    -0.13400
C1657       C  0.02381723  0.75333827  0.42101109     0.03300
C1658       C  0.02800603  0.76147851  0.39860870    -0.25500
H1659       H  0.01327113  0.75621794  0.32067720     0.08400
H1660       H  0.03150067  0.77460174  0.35432168     0.12000
H1661       H  0.97987016  0.70793843  0.36494130     0.11900
H1662       H  0.98459106  0.71184862  0.40711558     0.11700
H1663       H  0.00374735  0.72934060  0.44064111     0.12200
H1664       H  0.04016531  0.77528968  0.39628766     0.14200
C1665       C  0.88705689  0.76717532  0.37453178    -0.05800
C1666       C  0.91108394  0.76732163  0.37502538    -0.05800
C1667       C  0.92322438  0.76819914  0.35451922    -0.23900
C1668       C  0.91135128  0.76776506  0.33342362     0.18300
C1669       C  0.88726013  0.76969478  0.33290331     0.15500
C1670       C  0.87537552  0.77068557  0.35358149    -0.19000
C1671       C  0.87523255  0.76700420  0.31199055    -0.20800
C1672       C  0.88657939  0.75854347  0.29265778    -0.13400
C1673       C  0.91020192  0.75468158  0.29379329     0.03300
C1674       C  0.92279611  0.76180384  0.31333979    -0.25500
H1675       H  0.92046808  0.76537591  0.39106619     0.08400
H1676       H  0.94172715  0.76685923  0.35513434     0.12000
H1677       H  0.85682599  0.77125580  0.35307575     0.11900
H1678       H  0.85676202  0.76860357  0.31134488     0.11700
H1679       H  0.87674784  0.75329695  0.27757541     0.12200
H1680       H  0.94109258  0.75871193  0.31428305     0.14200
C1681       C  0.00235742  0.34153279  0.25188081    -0.05800
C1682       C  0.98790799  0.33149631  0.23492395    -0.05800
C1683       C  0.97967733  0.30912728  0.23675324    -0.23900
C1684       C  0.98568134  0.29565068  0.25561885     0.18300
C1685       C  0.99908358  0.30539037  0.27364801     0.15500
C1686       C  0.00727059  0.32848219  0.27184614    -0.19000
C1687       C  0.00506778  0.29123662  0.29230667    -0.20800
C1688       C  0.99975023  0.26755327  0.29194565    -0.13400
C1689       C  0.98823551  0.25735190  0.27297077     0.03300
C1690       C  0.98001562  0.27209201  0.25564746    -0.25500
H1691       H  0.98345709  0.34090185  0.21954011     0.08400
H1692       H  0.96934415  0.30202993  0.22278552     0.12000
H1693       H  0.01838276  0.33564646  0.28513249     0.11900
H1694       H  0.01527741  0.29810701  0.30645451     0.11700
H1695       H  0.00697197  0.25683625  0.30523403     0.12200
H1696       H  0.97147647  0.26464521  0.24065560     0.14200
C1697       C  0.02290412  0.58921988  0.25572673    -0.05800
C1698       C  0.04005600  0.57897344  0.24232209    -0.05800
C1699       C  0.04733667  0.55639507  0.24671524    -0.23900
C1700       C  0.03748891  0.54342381  0.26450583     0.18300
C1701       C  0.02135688  0.55407412  0.27898141     0.15500
C1702       C  0.01429985  0.57678384  0.27459960    -0.19000
C1703       C  0.01102844  0.54115552  0.29635203    -0.20800
C1704       C  0.01416913  0.51735555  0.29732965    -0.13400
C1705       C  0.02812812  0.50578450  0.28136767     0.03300
C1706       C  0.04146751  0.51946368  0.26645746    -0.25500
H1707       H  0.04676301  0.58784317  0.22754141     0.08400
H1708       H  0.05967428  0.54859120  0.23526890     0.12000
H1709       H  0.00091629  0.58431225  0.28501489     0.11900
H1710       H  0.99883341  0.54908235  0.30788023     0.11700
H1711       H  0.00346958  0.50761741  0.30882733     0.12200
H1712       H  0.05208441  0.51102798  0.25379108     0.14200
C1713       C  0.92810343  0.86061989  0.34718783    -0.05800
C1714       C  0.93660998  0.83899116  0.35328123    -0.05800
C1715       C  0.92759309  0.82696183  0.37191826    -0.23900
C1716       C  0.90906202  0.83565574  0.38446693     0.18300
C1717       C  0.89972813  0.85697514  0.37830335     0.15500
C1718       C  0.90953275  0.86951771  0.36000212    -0.19000
C1719       C  0.88066408  0.86521220  0.39051609    -0.20800
C1720       C  0.87052413  0.85213822  0.40801180    -0.13400
C1721       C  0.87968815  0.83086119  0.41438099     0.03300
C1722       C  0.89940862  0.82309862  0.40270591    -0.25500
H1723       H  0.95095831  0.83165233  0.34416715     0.08400
H1724       H  0.93521758  0.81079519  0.37654354     0.12000
H1725       H  0.90272569  0.88617693  0.35578694     0.11900
H1726       H  0.87321157  0.88154964  0.38614390     0.11700
H1727       H  0.85541156  0.85862914  0.41649973     0.12200
H1728       H  0.90666044  0.80667745  0.40709582     0.14200
C1729       C  0.98478093  0.00404194  0.24123221    -0.05800
C1730       C  0.00369191  0.01204895  0.22892751    -0.05800
C1731       C  0.00954961  0.03543246  0.22937557    -0.23900
C1732       C  0.99669748  0.05138977  0.24222271     0.18300
C1733       C  0.97659780  0.04406600  0.25316049     0.15500
C1734       C  0.97057166  0.02054655  0.25227647    -0.19000
C1735       C  0.96384516  0.06014667  0.26606949    -0.20800
C1736       C  0.97157898  0.08294213  0.26907221    -0.13400
C1737       C  0.99228562  0.09014784  0.25930067     0.03300
C1738       C  0.00433462  0.07421166  0.24535546    -0.25500
H1739       H  0.01512846  0.00002670  0.22066244     0.08400
H1740       H  0.02498399  0.04083423  0.22074012     0.12000
H1741       H  0.95595128  0.01477251  0.26204662     0.11900
H1742       H  0.94831363  0.05485850  0.27460962     0.11700
H1743       H  0.96202747  0.09452868  0.28000229     0.12200
H1744       H  0.02034204  0.07938561  0.23763109     0.14200
C1745       C  0.01052397  0.83920670  0.23912420    -0.05800
C1746       C  0.03025375  0.83294230  0.25154827    -0.05800
C1747       C  0.03859470  0.81050945  0.25091882    -0.23900
C1748       C  0.02799934  0.79373125  0.23700658     0.18300
C1749       C  0.00986898  0.80018580  0.22218274     0.15500
C1750       C  0.00068019  0.82275410  0.22380426    -0.19000
C1751       C  0.00047991  0.78342984  0.20718970    -0.20800
C1752       C  0.00720753  0.76030814  0.20870489    -0.13400
C1753       C  0.02266294  0.75316373  0.22592327     0.03300
C1754       C  0.03402713  0.77036792  0.23903575    -0.25500
H1755       H  0.03823768  0.84509689  0.26333654     0.08400
H1756       H  0.05280658  0.80607423  0.26211295     0.12000
H1757       H  0.98536073  0.82706866  0.21415499     0.11900
H1758       H  0.98688367  0.78790185  0.19527040     0.11700
H1759       H  0.99794818  0.74763308  0.19852094     0.12200
H1760       H  0.04592504  0.76533012  0.25248563     0.14200
C1761       C  0.99016995  0.83187333  0.45995685    -0.05800
C1762       C  0.98334395  0.85475470  0.46070791    -0.05800
C1763       C  0.97718004  0.86563016  0.44041799    -0.23900
C1764       C  0.97922748  0.85389229  0.41935897     0.18300
C1765       C  0.98353724  0.83013944  0.41888108     0.15500
C1766       C  0.98758978  0.81892820  0.43959006    -0.19000
C1767       C  0.98714675  0.81883084  0.39775634    -0.20800
C1768       C  0.98942896  0.83151719  0.37765744    -0.13400
C1769       C  0.98721700  0.85539400  0.37857116     0.03300
C1770       C  0.98021805  0.86612902  0.39905562    -0.25500
H1771       H  0.98535864  0.86478586  0.47641484     0.08400
H1772       H  0.97373921  0.88382360  0.44093388     0.12000
H1773       H  0.99314248  0.80123479  0.43915703     0.11900
H1774       H  0.99020563  0.80057044  0.39709924     0.11700
H1775       H  0.99404518  0.82285919  0.36177778     0.12200
H1776       H  0.97763759  0.88447806  0.39971883     0.14200
C1777       C  0.16133924  0.01743250  0.24466731    -0.05800
C1778       C  0.16479331  0.00442107  0.26465789    -0.05800
C1779       C  0.14630688  0.99427838  0.27593916    -0.23900
C1780       C  0.12385183  0.99713238  0.26769388     0.18300
C1781       C  0.11988171  0.01143053  0.24861325     0.15500
C1782       C  0.13863396  0.02135430  0.23711312    -0.19000
C1783       C  0.09726015  0.01489731  0.24095361    -0.20800
C1784       C  0.07894138  0.00337144  0.25127692    -0.13400
C1785       C  0.08289156  0.98788471  0.26923910     0.03300
C1786       C  0.10542366  0.98531892  0.27771516    -0.25500
H1787       H  0.18194847  0.00123247  0.27105803     0.08400
H1788       H  0.14965170  0.98368864  0.29079157     0.12000
H1789       H  0.13558330  0.03168480  0.22200820     0.11900
H1790       H  0.09378288  0.02605915  0.22657202     0.11700
H1791       H  0.06178963  0.00574462  0.24447701     0.12200
H1792       H  0.10867074  0.97371585  0.29180782     0.14200
C1793       C  0.21522485  0.10122095  0.27564084    -0.05800
C1794       C  0.21663034  0.12494620  0.27881148    -0.05800
C1795       C  0.19791733  0.13674673  0.28763291    -0.23900
C1796       C  0.17750174  0.12482410  0.29173365     0.18300
C1797       C  0.17742445  0.10067502  0.29201910     0.15500
C1798       C  0.19713988  0.08898068  0.28563128    -0.19000
C1799       C  0.15674297  0.08871038  0.29442253    -0.20800
C1800       C  0.13608303  0.10039128  0.29242369    -0.13400
C1801       C  0.13613585  0.12413985  0.28913915     0.03300
C1802       C  0.15675423  0.13644508  0.29143444    -0.25500
H1803       H  0.23087968  0.13450221  0.27190714     0.08400
H1804       H  0.19832603  0.15527054  0.28790839     0.12000
H1805       H  0.19626030  0.07051571  0.28371902     0.11900
H1806       H  0.15645960  0.07019198  0.29499364     0.11700
H1807       H  0.12029402  0.09064129  0.29152598     0.12200
H1808       H  0.15689001  0.15489109  0.28974987     0.14200
C1809       C  0.11997282  0.85979631  0.58707733    -0.05800
C1810       C  0.10807307  0.86958591  0.60573844    -0.05800
C1811       C  0.11704166  0.88853523  0.61793785    -0.23900
C1812       C  0.13786925  0.89853934  0.61143738     0.18300
C1813       C  0.14979703  0.88913233  0.59252007     0.15500
C1814       C  0.14103493  0.86969754  0.58077829    -0.19000
C1815       C  0.17031278  0.89934532  0.58559987    -0.20800
C1816       C  0.17897250  0.91865924  0.59719993    -0.13400
C1817       C  0.16786726  0.92768584  0.61668996     0.03300
C1818       C  0.14716134  0.91751815  0.62366954    -0.25500
H1819       H  0.09176412  0.86256397  0.61094198     0.08400
H1820       H  0.10755198  0.89550114  0.63233830     0.12000
H1821       H  0.15035598  0.86265419  0.56630430     0.11900
H1822       H  0.17993412  0.89206894  0.57148693     0.11700
H1823       H  0.19514411  0.92575151  0.59166261     0.12200
H1824       H  0.13849614  0.92416138  0.63875024     0.14200
C1825       C  0.24356886  0.90144517  0.60186686    -0.05800
C1826       C  0.22987913  0.88172614  0.60099736    -0.05800
C1827       C  0.23905073  0.86123240  0.59305093    -0.23900
C1828       C  0.26235174  0.86019962  0.58769473     0.18300
C1829       C  0.27574835  0.88038429  0.58741805     0.15500
C1830       C  0.26573353  0.90117340  0.59306188    -0.19000
C1831       C  0.29942244  0.87916636  0.58411189    -0.20800
C1832       C  0.30994299  0.85794655  0.58228385    -0.13400
C1833       C  0.29670738  0.83790825  0.58287069     0.03300
C1834       C  0.27286890  0.83915124  0.58469285    -0.25500
H1835       H  0.21282851  0.88180712  0.60817113     0.08400
H1836       H  0.22863561  0.84586411  0.59337067     0.12000
H1837       H  0.27633058  0.91643690  0.59426397     0.11900
H1838       H  0.30988475  0.89451015  0.58405899     0.11700
H1839       H  0.32833702  0.85718979  0.58019668     0.12200
H1840       H  0.26262440  0.82364774  0.58497699     0.14200
C1841       C  0.26309520  0.92277327  0.48266980    -0.05800
C1842       C  0.25542100  0.91518972  0.50421850    -0.05800
C1843       C  0.26359925  0.89470562  0.51369805    -0.23900
C1844       C  0.28010630  0.88152717  0.50213076     0.18300
C1845       C  0.28849599  0.88928513  0.48081145     0.15500
C1846       C  0.27970576  0.90955108  0.47107352    -0.19000
C1847       C  0.30564884  0.87668712  0.46963582    -0.20800
C1848       C  0.31448967  0.85672178  0.47944774    -0.13400
C1849       C  0.30600960  0.84841482  0.50037077     0.03300
C1850       C  0.28855368  0.86090539  0.51155451    -0.25500
H1851       H  0.24257940  0.92481429  0.51349032     0.08400
H1852       H  0.25702744  0.88919724  0.53014613     0.12000
H1853       H  0.28596372  0.91515823  0.45452812     0.11900
H1854       H  0.31240898  0.88239374  0.45334234     0.11700
H1855       H  0.32780713  0.84750769  0.47043517     0.12200
H1856       H  0.28197712  0.85489183  0.52782653     0.14200
C1857       C  0.09240683  0.12253429  0.34189732    -0.05800
C1858       C  0.09425041  0.09913787  0.33607333    -0.05800
C1859       C  0.11124770  0.08543178  0.34591600    -0.23900
C1860       C  0.12676572  0.09462791  0.36212693     0.18300
C1861       C  0.12447387  0.11772109  0.36917556     0.15500
C1862       C  0.10745543  0.13158879  0.35890926    -0.19000
C1863       C  0.13951797  0.12657834  0.38612419    -0.20800
C1864       C  0.15673924  0.11284458  0.39574113    -0.13400
C1865       C  0.15976628  0.09015297  0.38817754     0.03300
C1866       C  0.14456488  0.08113980  0.37134635    -0.25500
H1867       H  0.08316110  0.09153346  0.32301449     0.08400
H1868       H  0.11253584  0.06770445  0.34045703     0.12000
H1869       H  0.10629874  0.14948743  0.36376681     0.11900
H1870       H  0.13793201  0.14413819  0.39200981     0.11700
H1871       H  0.16791518  0.12004423  0.40895745     0.12200
H1872       H  0.14626476  0.06345478  0.36584050     0.14200
C1873       C  0.27289056  0.01589852  0.34701336    -0.05800
C1874       C  0.28860855  0.03022628  0.33585861    -0.05800
C1875       C  0.29509411  0.02571817  0.31278096    -0.23900
C1876       C  0.28596940  0.00680707  0.30032612     0.18300
C1877       C  0.27148321  0.99152199  0.31196397     0.15500
C1878       C  0.26514435  0.99612036  0.33501333    -0.19000
C1879       C  0.26200135  0.97281320  0.29982348    -0.20800
C1880       C  0.26443510  0.97077639  0.27587583    -0.13400
C1881       C  0.27653116  0.98722913  0.26333116     0.03300
C1882       C  0.28897980  0.00415810  0.27605891    -0.25500
H1883       H  0.29478896  0.04560700  0.34445022     0.08400
H1884       H  0.30628538  0.03772555  0.30428848     0.12000
H1885       H  0.25296234  0.98491399  0.34326951     0.11900
H1886       H  0.25103196  0.96075821  0.30853809     0.11700
H1887       H  0.25443755  0.95784002  0.26677698     0.12200
H1888       H  0.29794838  0.01737330  0.26677795     0.14200
C1889       C  0.28002847  0.03912849  0.51372392    -0.05800
C1890       C  0.29668414  0.02769268  0.52687962    -0.05800
C1891       C  0.29579292  0.02744310  0.55105288    -0.23900
C1892       C  0.27782213  0.03817056  0.56287176     0.18300
C1893       C  0.26189814  0.05127642  0.55029517     0.15500
C1894       C  0.26347959  0.05220215  0.52580445    -0.19000
C1895       C  0.24341058  0.06119128  0.56225526    -0.20800
C1896       C  0.23969435  0.05649593  0.58579874    -0.13400
C1897       C  0.25469510  0.04228954  0.59818225     0.03300
C1898       C  0.27432093  0.03410359  0.58661516    -0.25500
H1899       H  0.30921689  0.01704746  0.51831391     0.08400
H1900       H  0.30817607  0.01726522  0.56038202     0.12000
H1901       H  0.25010633  0.06060660  0.51608712     0.11900
H1902       H  0.23085467  0.07122059  0.55299994     0.11700
H1903       H  0.22406647  0.06240098  0.59376099     0.12200
H1904       H  0.28563762  0.02244191  0.59555509     0.14200
C1905       C  0.17062886  0.95903004  0.51495603    -0.05800
C1906       C  0.18401377  0.94192837  0.52515423    -0.05800
C1907       C  0.17434068  0.92061551  0.52969947    -0.23900
C1908       C  0.15123288  0.91648466  0.52433679     0.18300
C1909       C  0.13713593  0.93490579  0.51760180     0.15500
C1910       C  0.14681463  0.95634865  0.51385710    -0.19000
C1911       C  0.11420269  0.93103637  0.51184218    -0.20800
C1912       C  0.10577754  0.90884643  0.51065730    -0.13400
C1913       C  0.12005422  0.89009837  0.51545793     0.03300
C1914       C  0.14252480  0.89410574  0.52341914    -0.25500
H1915       H  0.20242433  0.94384442  0.52659856     0.08400
H1916       H  0.18544901  0.90683330  0.53498706     0.12000
H1917       H  0.13634965  0.96978520  0.50653867     0.11900
H1918       H  0.10315455  0.94501139  0.50683286     0.11700
H1919       H  0.08818547  0.90641889  0.50507634     0.12200
H1920       H  0.15356385  0.87986748  0.52760763     0.14200
C1921       C  0.04467809  0.99553308  0.36097292    -0.05800
C1922       C  0.04576172  0.99740773  0.38504550    -0.05800
C1923       C  0.06582109  0.00509222  0.39587521    -0.23900
C1924       C  0.08534174  0.00960672  0.38273913     0.18300
C1925       C  0.08402708  0.00881847  0.35843010     0.15500
C1926       C  0.06335245  0.00261378  0.34768588    -0.19000
C1927       C  0.10390064  0.01205733  0.34539591    -0.20800
C1928       C  0.12520761  0.01417138  0.35641402    -0.13400
C1929       C  0.12674950  0.01348358  0.38057128     0.03300
C1930       C  0.10655642  0.01267796  0.39357470    -0.25500
H1931       H  0.03162247  0.99157797  0.39543818     0.08400
H1932       H  0.06665401  0.00559933  0.41454265     0.12000
H1933       H  0.06271945  0.00047370  0.32908372     0.11900
H1934       H  0.10314741  0.01154027  0.32672448     0.11700
H1935       H  0.14049086  0.01523554  0.34604336     0.12200
H1936       H  0.10743703  0.01275646  0.41225322     0.14200
C1937       C  0.24542230  0.99322371  0.09911424    -0.05800
C1938       C  0.25926860  0.97563686  0.09035485    -0.05800
C1939       C  0.25670135  0.96793611  0.06737031    -0.23900
C1940       C  0.24022948  0.97767532  0.05257521     0.18300
C1941       C  0.22509442  0.99415780  0.06161668     0.15500
C1942       C  0.22766538  0.00169028  0.08479746    -0.19000
C1943       C  0.20903784  0.00431755  0.04673206    -0.20800
C1944       C  0.21004580  0.00052669  0.02277336    -0.13400
C1945       C  0.22653719  0.98586261  0.01314398     0.03300
C1946       C  0.24018937  0.97299063  0.02851920    -0.25500
H1947       H  0.27310786  0.96892743  0.10078662     0.08400
H1948       H  0.26854782  0.95530625  0.06077397     0.12000
H1949       H  0.21677949  0.01524235  0.09127881     0.11900
H1950       H  0.19708912  0.01684609  0.05334567     0.11700
H1951       H  0.19968345  0.01109021  0.01159327     0.12200
H1952       H  0.25324463  0.96187350  0.02147038     0.14200
C1953       C  0.23814288  0.02734632  0.76390343    -0.05800
C1954       C  0.25939633  0.03615495  0.77136313    -0.05800
C1955       C  0.26649884  0.03414016  0.79455108    -0.23900
C1956       C  0.25257019  0.02312185  0.81081605     0.18300
C1957       C  0.23051684  0.01571933  0.80406408     0.15500
C1958       C  0.22339083  0.01810571  0.78081436    -0.19000
C1959       C  0.21657191  0.00470418  0.82032673    -0.20800
C1960       C  0.22478890  0.00001974  0.84269908    -0.13400
C1961       C  0.24722240  0.00603451  0.84927800     0.03300
C1962       C  0.26073110  0.01828472  0.83329248    -0.25500
H1963       H  0.27134993  0.04277316  0.75891259     0.08400
H1964       H  0.28348537  0.04002963  0.79945112     0.12000
H1965       H  0.20706445  0.01087166  0.77540321     0.11900
H1966       H  0.19951802  0.99898742  0.81547964     0.11700
H1967       H  0.21397094  0.99076379  0.85447286     0.12200
H1968       H  0.27796288  0.02348094  0.83812558     0.14200
C1969       C  0.91611449  0.61618944  0.17129121    -0.05800
C1970       C  0.91332310  0.59327583  0.17806248    -0.05800
C1971       C  0.89605801  0.57942918  0.16846784    -0.23900
C1972       C  0.88143059  0.58775436  0.15129740     0.18300
C1973       C  0.88420952  0.61048575  0.14376650     0.15500
C1974       C  0.90135777  0.62466100  0.15395035    -0.19000
C1975       C  0.86968216  0.61858681  0.12624874    -0.20800
C1976       C  0.85308145  0.60420006  0.11597430    -0.13400
C1977       C  0.85016900  0.58154696  0.12334457     0.03300
C1978       C  0.86425452  0.57360667  0.14138412    -0.25500
H1979       H  0.92398398  0.58616312  0.19152769     0.08400
H1980       H  0.89389983  0.56224810  0.17474593     0.12000
H1981       H  0.90306171  0.64225000  0.14853290     0.11900
H1982       H  0.87141618  0.63595228  0.12019043     0.11700
H1983       H  0.84257486  0.61075071  0.10208149     0.12200
H1984       H  0.86248081  0.55610489  0.14705711     0.14200
C1985       C  0.89484328  0.51241895  0.11197743    -0.05800
C1986       C  0.91404262  0.51229421  0.09744188    -0.05800
C1987       C  0.93589899  0.51572995  0.10645430    -0.23900
C1988       C  0.93887775  0.51899584  0.13015030     0.18300
C1989       C  0.91957352  0.52112571  0.14459158     0.15500
C1990       C  0.89761684  0.51806557  0.13534877    -0.19000
C1991       C  0.92266781  0.52400354  0.16836757    -0.20800
C1992       C  0.94439735  0.52161991  0.17798846    -0.13400
C1993       C  0.96292361  0.51563145  0.16386245     0.03300
C1994       C  0.96065473  0.51708490  0.13992869    -0.25500
H1995       H  0.91230761  0.50885857  0.07913039     0.08400
H1996       H  0.95049919  0.51437925  0.09512760     0.12000
H1997       H  0.88291263  0.51860283  0.14660366     0.11900
H1998       H  0.90812864  0.52560467  0.17971798     0.11700
H1999       H  0.94588098  0.52093341  0.19659892     0.12200
H2000       H  0.97510293  0.51291801  0.12905483     0.14200
C2001       C  0.78219090  0.65288682  0.48947640    -0.05800
C2002       C  0.76318309  0.65533931  0.50403974    -0.05800
C2003       C  0.75238784  0.63623311  0.51345009    -0.23900
C2004       C  0.76009415  0.61409721  0.50829247     0.18300
C2005       C  0.77861858  0.61119497  0.49303563     0.15500
C2006       C  0.78974117  0.63060476  0.48392301    -0.19000
C2007       C  0.78587352  0.58891539  0.48751730    -0.20800
C2008       C  0.77543164  0.56982771  0.49757745    -0.13400
C2009       C  0.75776154  0.57259848  0.51365626     0.03300
C2010       C  0.74993729  0.59487640  0.51859510    -0.25500
H2011       H  0.75699700  0.67218630  0.50872360     0.08400
H2012       H  0.73814305  0.63881180  0.52501607     0.12000
H2013       H  0.80421204  0.62838463  0.47256662     0.11900
H2014       H  0.79993786  0.58625655  0.47575620     0.11700
H2015       H  0.78189329  0.55292305  0.49358110     0.12200
H2016       H  0.73620124  0.59727003  0.53082435     0.14200
C2017       C  0.66855320  0.52865478  0.49307571    -0.05800
C2018       C  0.67953693  0.54670167  0.48174174    -0.05800
C2019       C  0.66740794  0.56651813  0.47657750    -0.23900
C2020       C  0.64445244  0.56841309  0.48311163     0.18300
C2021       C  0.63270107  0.54905711  0.49142733     0.15500
C2022       C  0.64465616  0.52887072  0.49519285    -0.19000
C2023       C  0.61000062  0.55097300  0.49867869    -0.20800
C2024       C  0.59974292  0.57236094  0.49985840    -0.13400
C2025       C  0.61199323  0.59194967  0.49348628     0.03300
C2026       C  0.63383071  0.58973924  0.48382412    -0.25500
H2027       H  0.69793467  0.54674755  0.47954312     0.08400
H2028       H  0.67657156  0.58111097  0.46990014     0.12000
H2029       H  0.63599029  0.51469890  0.50335265     0.11900
H2030       H  0.60077734  0.53624040  0.50500386     0.11700
H2031       H  0.58269871  0.57369624  0.50693641     0.12200
H2032       H  0.64313828  0.60477069  0.47834841     0.14200
C2033       C  0.61976214  0.63318565  0.41689067    -0.05800
C2034       C  0.61066348  0.62860454  0.39474567    -0.05800
C2035       C  0.62189609  0.61368905  0.37931293    -0.23900
C2036       C  0.64223264  0.60250640  0.38581421     0.18300
C2037       C  0.65134556  0.60674065  0.40809875     0.15500
C2038       C  0.64032277  0.62211648  0.42324002    -0.19000
C2039       C  0.67126575  0.59534534  0.41505681    -0.20800
C2040       C  0.68187858  0.57961727  0.40035611    -0.13400
C2041       C  0.67326326  0.57510452  0.37801095     0.03300
C2042       C  0.65349108  0.58701469  0.37067836    -0.25500
H2043       H  0.59489308  0.63665826  0.38929065     0.08400
H2044       H  0.61449175  0.61068479  0.36235800     0.12000
H2045       H  0.64757755  0.62504558  0.44027762     0.11900
H2046       H  0.67865180  0.59853831  0.43197870     0.11700
H2047       H  0.69724685  0.57123135  0.40642831     0.12200
H2048       H  0.64667141  0.58393235  0.35348850     0.14200
C2049       C  0.84006314  0.50175959  0.26658820    -0.05800
C2050       C  0.83783911  0.48743414  0.24704457    -0.05800
C2051       C  0.85728100  0.47867864  0.23618255    -0.23900
C2052       C  0.87922902  0.48456679  0.24437184     0.18300
C2053       C  0.88153377  0.50000832  0.26318500     0.15500
C2054       C  0.86199554  0.50821978  0.27433170    -0.19000
C2055       C  0.90337134  0.50678668  0.27077927    -0.20800
C2056       C  0.92283279  0.49785229  0.26030044    -0.13400
C2057       C  0.92082017  0.48157887  0.24239920     0.03300
C2058       C  0.89890989  0.47513781  0.23432376    -0.25500
H2059       H  0.82106446  0.48236001  0.24066495     0.08400
H2060       H  0.85515372  0.46714272  0.22156648     0.12000
H2061       H  0.86385577  0.51959208  0.28912575     0.11900
H2062       H  0.90540879  0.51881921  0.28499524     0.11700
H2063       H  0.93952311  0.50307187  0.26678157     0.12200
H2064       H  0.89720835  0.46279563  0.22032146     0.14200
C2065       C  0.73815937  0.46714790  0.24116011    -0.05800
C2066       C  0.75324450  0.45226207  0.22965064    -0.05800
C2067       C  0.75829241  0.45484216  0.20615983    -0.23900
C2068       C  0.74875805  0.47275370  0.19335016     0.18300
C2069       C  0.73195066  0.48662787  0.20371720     0.15500
C2070       C  0.72615114  0.48318683  0.22733736    -0.19000
C2071       C  0.72281575  0.50486777  0.19081356    -0.20800
C2072       C  0.73096143  0.50983281  0.16848927    -0.13400
C2073       C  0.74854679  0.49679128  0.15842843     0.03300
C2074       C  0.75687267  0.47785864  0.17095676    -0.25500
H2075       H  0.76328807  0.44023526  0.23953113     0.08400
H2076       H  0.77113482  0.44388878  0.19851133     0.12000
H2077       H  0.71463668  0.49508722  0.23569900     0.11900
H2078       H  0.70999884  0.51591727  0.19836480     0.11700
H2079       H  0.72424677  0.52453906  0.15953269     0.12200
H2080       H  0.77034713  0.46750955  0.16354094     0.14200
C2081       C  0.76074464  0.47036101  0.40893223    -0.05800
C2082       C  0.74630011  0.45411016  0.41913359    -0.05800
C2083       C  0.74998905  0.44693966  0.44209938    -0.23900
C2084       C  0.76837522  0.45568309  0.45557220     0.18300
C2085       C  0.78395699  0.47070587  0.44505646     0.15500
C2086       C  0.77997997  0.47807449  0.42204301    -0.19000
C2087       C  0.80239845  0.47935731  0.45831121    -0.20800
C2088       C  0.80391153  0.47541805  0.48219662    -0.13400
C2089       C  0.78710282  0.46273264  0.49379990     0.03300
C2090       C  0.77034520  0.45137557  0.47975003    -0.25500
H2091       H  0.73124415  0.44805586  0.40986514     0.08400
H2092       H  0.73775765  0.43534363  0.44968994     0.12000
H2093       H  0.79126459  0.49075466  0.41470426     0.11900
H2094       H  0.81478474  0.49068103  0.45055797     0.11700
H2095       H  0.81673490  0.48476778  0.49212156     0.12200
H2096       H  0.75701112  0.44163818  0.48807386     0.14200
C2097       C  0.73684462  0.61664793  0.38045391    -0.05800
C2098       C  0.73491301  0.61711181  0.40453335    -0.05800
C2099       C  0.73610547  0.63793762  0.41652248    -0.23900
C2100       C  0.73998431  0.65829625  0.40453096     0.18300
C2101       C  0.74002202  0.65810455  0.38022194     0.15500
C2102       C  0.73764742  0.63740550  0.36838182    -0.19000
C2103       C  0.74498221  0.67815603  0.36816018    -0.20800
C2104       C  0.75288504  0.69745636  0.38009508    -0.13400
C2105       C  0.75487036  0.69707600  0.40416405     0.03300
C2106       C  0.74647531  0.67819320  0.41637697    -0.25500
H2107       H  0.73359962  0.60138993  0.41412128     0.08400
H2108       H  0.73577932  0.63790696  0.43519687     0.12000
H2109       H  0.73871379  0.63743265  0.34973481     0.11900
H2110       H  0.74484039  0.67824117  0.34948171     0.11700
H2111       H  0.75904321  0.71198106  0.37048873     0.12200
H2112       H  0.74801492  0.67774852  0.43501511     0.14200
C2113       C  0.79753740  0.58755032  0.24715622    -0.05800
C2114       C  0.79569660  0.61138009  0.24564508    -0.05800
C2115       C  0.81450783  0.62439537  0.23907880    -0.23900
C2116       C  0.83554120  0.61370566  0.23504497     0.18300
C2117       C  0.83688454  0.58959411  0.23433694     0.15500
C2118       C  0.81747797  0.57660945  0.23941501    -0.19000
C2119       C  0.85816077  0.57897016  0.23140325    -0.20800
C2120       C  0.87818587  0.59208082  0.23189153    -0.13400
C2121       C  0.87703822  0.61596804  0.23464029     0.03300
C2122       C  0.85557552  0.62671785  0.23441671    -0.25500
H2123       H  0.78036531  0.62002119  0.25138595     0.08400
H2124       H  0.81321121  0.64287330  0.23944325     0.12000
H2125       H  0.81902447  0.55818248  0.24066370     0.11900
H2126       H  0.85945337  0.56049611  0.23056466     0.11700
H2127       H  0.89453585  0.58343711  0.23127089     0.12200
H2128       H  0.85441334  0.64516313  0.23599012     0.14200
C2129       C  0.76498589  0.52832606  0.91246205    -0.05800
C2130       C  0.77929194  0.54341730  0.92501447    -0.05800
C2131       C  0.77415609  0.54958083  0.94804050    -0.23900
C2132       C  0.75475962  0.54051364  0.95915852     0.18300
C2133       C  0.73949078  0.52665642  0.94615078     0.15500
C2134       C  0.74456918  0.52089650  0.92300708    -0.19000
C2135       C  0.72052204  0.51692236  0.95711731    -0.20800
C2136       C  0.71830241  0.51836108  0.98115202    -0.13400
C2137       C  0.73472652  0.52983724  0.99493098     0.03300
C2138       C  0.75182477  0.54264948  0.98347571    -0.25500
H2139       H  0.79523472  0.54915703  0.91761747     0.08400
H2140       H  0.78621920  0.56018379  0.95764480     0.12000
H2141       H  0.73348142  0.50904514  0.91371805     0.11900
H2142       H  0.70848642  0.50639451  0.94738001     0.11700
H2143       H  0.70521500  0.50810278  0.98924058     0.12200
H2144       H  0.76500410  0.55111697  0.99370363     0.14200
C2145       C  0.78784023  0.52381578  0.74568270    -0.05800
C2146       C  0.77668998  0.54057533  0.73249804    -0.05800
C2147       C  0.77452324  0.53844636  0.70836357    -0.23900
C2148       C  0.78297031  0.51912870  0.69656284     0.18300
C2149       C  0.79574956  0.50293696  0.70904156     0.15500
C2150       C  0.79857385  0.50566573  0.73341149    -0.19000
C2151       C  0.80363613  0.48329732  0.69720250    -0.20800
C2152       C  0.79780853  0.47911585  0.67377967    -0.13400
C2153       C  0.78409669  0.49452527  0.66137197     0.03300
C2154       C  0.77729582  0.51487096  0.67298721    -0.25500
H2155       H  0.76769173  0.55432479  0.74114216     0.08400
H2156       H  0.76469676  0.55114252  0.69914336     0.12000
H2157       H  0.80661328  0.49213379  0.74310030     0.11900
H2158       H  0.81331424  0.47048849  0.70641666     0.11700
H2159       H  0.80274865  0.46306226  0.66583268     0.12200
H2160       H  0.76623030  0.52674136  0.66403318     0.14200
C2161       C  0.23490109  0.16723928  0.01426964    -0.05800
C2162       C  0.25149565  0.16977711  0.99708278    -0.05800
C2163       C  0.26355818  0.15088888  0.98871537    -0.23900
C2164       C  0.25952225  0.12905487  0.99757295     0.18300
C2165       C  0.24352202  0.12629311  0.01546180     0.15500
C2166       C  0.23111416  0.14538028  0.02355921    -0.19000
C2167       C  0.23997255  0.10440922  0.02457002    -0.20800
C2168       C  0.25135764  0.08535046  0.01532417    -0.13400
C2169       C  0.26638769  0.08778620  0.99668418     0.03300
C2170       C  0.27078313  0.10988077  0.98834672    -0.25500
H2171       H  0.25474542  0.18637412  0.98965560     0.08400
H2172       H  0.27585501  0.15332815  0.97507991     0.12000
H2173       H  0.21858960  0.14326101  0.03704885     0.11900
H2174       H  0.22797238  0.10194189  0.03846187     0.11700
H2175       H  0.24761696  0.06857425  0.02208837     0.12200
H2176       H  0.28254394  0.11210477  0.97418900     0.14200
C2177       C  0.12694710  0.33398214  0.09885589    -0.05800
C2178       C  0.10483259  0.32652438  0.10470478    -0.05800
C2179       C  0.09280186  0.33680170  0.12271460    -0.23900
C2180       C  0.10202374  0.35554777  0.13484734     0.18300
C2181       C  0.12392190  0.36386518  0.12903522     0.15500
C2182       C  0.13655383  0.35268255  0.11140361    -0.19000
C2183       C  0.13249051  0.38332678  0.14085817    -0.20800
C2184       C  0.11924243  0.39463922  0.15769519    -0.13400
C2185       C  0.09754518  0.38618023  0.16378478     0.03300
C2186       C  0.08937265  0.36630483  0.15241309    -0.25500
H2187       H  0.09697694  0.31209949  0.09578952     0.08400
H2188       H  0.07615341  0.33006340  0.12715117     0.12000
H2189       H  0.15361501  0.35863983  0.10732714     0.11900
H2190       H  0.14922116  0.39011093  0.13672441     0.11700
H2191       H  0.12598316  0.40993947  0.16600412     0.12200
H2192       H  0.07260130  0.35965251  0.15662026     0.14200
C2193       C  0.26046157  0.13462133  0.13076322    -0.05800
C2194       C  0.26078862  0.13168468  0.10667144    -0.05800
C2195       C  0.26495517  0.15015431  0.09241881    -0.23900
C2196       C  0.26791304  0.17199679  0.10203784     0.18300
C2197       C  0.26931947  0.17487937  0.12626155     0.15500
C2198       C  0.26640008  0.15595036  0.14049467    -0.19000
C2199       C  0.27055519  0.19696676  0.13582591    -0.20800
C2200       C  0.26615983  0.21576905  0.12188201    -0.13400
C2201       C  0.26193765  0.21256354  0.09819413     0.03300
C2202       C  0.26589592  0.19112693  0.08802274    -0.25500
H2203       H  0.25696218  0.11526694  0.09871552     0.08400
H2204       H  0.26390901  0.14765920  0.07389282     0.12000
H2205       H  0.26668115  0.15828580  0.15906109     0.11900
H2206       H  0.27194592  0.19951168  0.15431576     0.11700
H2207       H  0.26338416  0.23231560  0.12993392     0.12200
H2208       H  0.26269219  0.18863091  0.06970443     0.14200
C2209       C  0.13109021  0.27311699  0.13969320    -0.05800
C2210       C  0.10765221  0.27814948  0.14100852    -0.05800
C2211       C  0.09680936  0.27882742  0.16230792    -0.23900
C2212       C  0.10912736  0.27356669  0.18238750     0.18300
C2213       C  0.13307536  0.27053844  0.18147936     0.15500
C2214       C  0.14401517  0.27112673  0.16019720    -0.19000
C2215       C  0.14519223  0.26407747  0.20134215    -0.20800
C2216       C  0.13321095  0.25678812  0.22062804    -0.13400
C2217       C  0.10917972  0.25700102  0.22041689     0.03300
C2218       C  0.09748381  0.26804280  0.20246840    -0.25500
H2219       H  0.09741232  0.28025311  0.12554264     0.08400
H2220       H  0.07845111  0.28138516  0.16280243     0.12000
H2221       H  0.16222853  0.26770708  0.15952823     0.11900
H2222       H  0.16362833  0.26211401  0.20104144     0.11700
H2223       H  0.14254320  0.24883502  0.23460848     0.12200
H2224       H  0.07892018  0.26857793  0.20231954     0.14200
C2225       C  0.33083555  0.10154277  0.13572141    -0.05800
C2226       C  0.35330118  0.10499802  0.14420994    -0.05800
C2227       C  0.36845645  0.12036051  0.13352378    -0.23900
C2228       C  0.36139900  0.13324474  0.11437346     0.18300
C2229       C  0.33883162  0.13003239  0.10585467     0.15500
C2230       C  0.32394515  0.11403782  0.11621147    -0.19000
C2231       C  0.33129228  0.14318232  0.08728898    -0.20800
C2232       C  0.34569556  0.15940171  0.07728169    -0.13400
C2233       C  0.36843743  0.16288461  0.08503041     0.03300
C2234       C  0.37624635  0.14938825  0.10371106    -0.25500
H2235       H  0.35919447  0.09575395  0.15919303     0.08400
H2236       H  0.38560586  0.12243564  0.14051774     0.12000
H2237       H  0.30667357  0.11191105  0.10954107     0.11900
H2238       H  0.31409200  0.14099441  0.08045280     0.11700
H2239       H  0.33897456  0.16897714  0.06288249     0.12200
H2240       H  0.39362971  0.15155956  0.11005445     0.14200
C2241       C  0.33856832  0.26515363  0.99570918    -0.05800
C2242       C  0.33136715  0.25347828  0.97556934    -0.05800
C2243       C  0.30912331  0.25574191  0.96674622    -0.23900
C2244       C  0.29323985  0.26993962  0.97773652     0.18300
C2245       C  0.30065688  0.28390466  0.99642018     0.15500
C2246       C  0.32331605  0.28126359  0.00561813    -0.19000
C2247       C  0.28458183  0.29882445  0.00647605    -0.20800
C2248       C  0.26111880  0.29760469  0.00019566    -0.13400
C2249       C  0.25304741  0.28110555  0.98413123     0.03300
C2250       C  0.26967863  0.26863943  0.97175338    -0.25500
H2251       H  0.34261381  0.24117432  0.96746914     0.08400
H2252       H  0.30395598  0.24527643  0.95205972     0.12000
H2253       H  0.32839236  0.29042098  0.02118321     0.11900
H2254       H  0.28978134  0.31017358  0.02046337     0.11700
H2255       H  0.24898206  0.30737185  0.01019481     0.12200
H2256       H  0.26397625  0.25580278  0.95933178     0.14200
C2257       C  0.37238706  0.12369552  0.02856093    -0.05800
C2258       C  0.34848877  0.12315020  0.03094309    -0.05800
C2259       C  0.33728407  0.10248090  0.03470639    -0.23900
C2260       C  0.34982242  0.08210325  0.03499355     0.18300
C2261       C  0.37398852  0.08277145  0.03449496     0.15500
C2262       C  0.38512442  0.10369271  0.03217777    -0.19000
C2263       C  0.38645531  0.06237836  0.03303612    -0.20800
C2264       C  0.37504160  0.04203845  0.02756514    -0.13400
C2265       C  0.35114601  0.04199609  0.02496927     0.03300
C2266       C  0.33857548  0.06122485  0.03200371    -0.25500
H2267       H  0.33835580  0.13845667  0.02879988     0.08400
H2268       H  0.31873602  0.10221628  0.03518561     0.12000
H2269       H  0.40363212  0.10396182  0.03089936     0.11900
H2270       H  0.40500867  0.06262677  0.03302657     0.11700
H2271       H  0.38493889  0.02716350  0.02265964     0.12200
H2272       H  0.32005416  0.06116475  0.03034096     0.14200
C2273       C  0.73299951  0.33523971  0.98856230    -0.05800
C2274       C  0.74767269  0.33279055  0.00768497    -0.05800
C2275       C  0.75899661  0.35170871  0.01732565    -0.23900
C2276       C  0.75622945  0.37342838  0.00777441     0.18300
C2277       C  0.74242187  0.37605698  0.98787137     0.15500
C2278       C  0.73057710  0.35697639  0.97857154    -0.19000
C2279       C  0.74044136  0.39779186  0.97797495    -0.20800
C2280       C  0.75099136  0.41688528  0.98846891    -0.13400
C2281       C  0.76357111  0.41459408  0.00913813     0.03300
C2282       C  0.76661427  0.39260439  0.01823120    -0.25500
H2283       H  0.74981629  0.31629538  0.01568803     0.08400
H2284       H  0.76967236  0.34939197  0.03248802     0.12000
H2285       H  0.71957793  0.35899702  0.96358511     0.11900
H2286       H  0.73033960  0.40010526  0.96242322     0.11700
H2287       H  0.74861193  0.43353853  0.98085040     0.12200
H2288       H  0.77666400  0.39041000  0.03384643     0.14200
C2289       C  0.58852967  0.25858313  0.00667333    -0.05800
C2290       C  0.58024925  0.27455033  0.99069248    -0.05800
C2291       C  0.55788150  0.28297971  0.99164741    -0.23900
C2292       C  0.54292093  0.27613173  0.00902144     0.18300
C2293       C  0.55118743  0.26175183  0.02662205     0.15500
C2294       C  0.57396606  0.25267947  0.02524394    -0.19000
C2295       C  0.53592674  0.25588676  0.04439132    -0.20800
C2296       C  0.51249004  0.26219842  0.04338329    -0.13400
C2297       C  0.50351215  0.27407101  0.02431318     0.03300
C2298       C  0.51943849  0.28214979  0.00800908    -0.25500
H2299       H  0.59091655  0.27974496  0.97650723     0.08400
H2300       H  0.55201272  0.29428131  0.97817174     0.12000
H2301       H  0.57978805  0.24034153  0.03775933     0.11900
H2302       H  0.54173812  0.24516800  0.05835525     0.11700
H2303       H  0.50092578  0.25527582  0.05602487     0.12200
H2304       H  0.51305404  0.29114872  0.99303926     0.14200
C2305       C  0.75208002  0.29915964  0.90595391    -0.05800
C2306       C  0.75889545  0.29945103  0.88293795    -0.05800
C2307       C  0.76781172  0.31941859  0.87361894    -0.23900
C2308       C  0.76889654  0.33954732  0.88697476     0.18300
C2309       C  0.76332100  0.33911380  0.91057700     0.15500
C2310       C  0.75550108  0.31861198  0.92012643    -0.19000
C2311       C  0.76377476  0.35958168  0.92354770    -0.20800
C2312       C  0.76717661  0.38057121  0.91262234    -0.13400
C2313       C  0.77076162  0.38113952  0.88873181     0.03300
C2314       C  0.77333331  0.36040915  0.87648815    -0.25500
H2315       H  0.75625435  0.28457567  0.87193088     0.08400
H2316       H  0.77218719  0.31956554  0.85551269     0.12000
H2317       H  0.74985824  0.31842057  0.93787964     0.11900
H2318       H  0.76011382  0.35948955  0.94177411     0.11700
H2319       H  0.76568782  0.39627856  0.92255315     0.12200
H2320       H  0.77686371  0.36052927  0.85817293     0.14200
C2321       C  0.84813187  0.41574990  0.87591431    -0.05800
C2322       C  0.87114972  0.41256851  0.86980821    -0.05800
C2323       C  0.88473918  0.39625255  0.88118314    -0.23900
C2324       C  0.87535089  0.38230109  0.89837462     0.18300
C2325       C  0.85202056  0.38504838  0.90401801     0.15500
C2326       C  0.83876431  0.40186904  0.89308711    -0.19000
C2327       C  0.84218054  0.37089263  0.92050541    -0.20800
C2328       C  0.85531820  0.35449161  0.93178342    -0.13400
C2329       C  0.87882642  0.35176195  0.92713424     0.03300
C2330       C  0.88871952  0.36577117  0.91009826    -0.25500
H2331       H  0.87866786  0.42288834  0.85644655     0.08400
H2332       H  0.90253081  0.39443481  0.87641212     0.12000
H2333       H  0.82087622  0.40380382  0.89755009     0.11900
H2334       H  0.82426637  0.37264436  0.92488953     0.11700
H2335       H  0.84699694  0.34428773  0.94474023     0.12200
H2336       H  0.90674197  0.36406622  0.90620354     0.14200
C2337       C  0.98963862  0.25787016  0.09158909    -0.05800
C2338       C  0.00318551  0.23841639  0.08754970    -0.05800
C2339       C  0.01477534  0.22760228  0.10565488    -0.23900
C2340       C  0.01357826  0.23626390  0.12826684     0.18300
C2341       C  0.00129386  0.25667850  0.13239127     0.15500
C2342       C  0.98908387  0.26715969  0.11414333    -0.19000
C2343       C  0.00110050  0.26594935  0.15480506    -0.20800
C2344       C  0.01177204  0.25450458  0.17308983    -0.13400
C2345       C  0.02263685  0.23325391  0.16960880     0.03300
C2346       C  0.02394492  0.22456437  0.14686062    -0.25500
H2347       H  0.00419640  0.23105362  0.07037609     0.08400
H2348       H  0.02442531  0.21222516  0.10199166     0.12000
H2349       H  0.97918260  0.28246276  0.11746786     0.11900
H2350       H  0.99223877  0.28183195  0.15832795     0.11700
H2351       H  0.01061780  0.26190662  0.19023463     0.12200
H2352       H  0.03259927  0.20849591  0.14367551     0.14200
C2353       C  0.00275711  0.23428054  0.97685790    -0.05800
C2354       C  0.01137666  0.24893354  0.95979879    -0.05800
C2355       C  0.03500736  0.25477730  0.95924214    -0.23900
C2356       C  0.05065110  0.24597200  0.97562859     0.18300
C2357       C  0.04253932  0.22899514  0.99069011     0.15500
C2358       C  0.01899541  0.22311033  0.99098020    -0.19000
C2359       C  0.05768271  0.21947569  0.00673138    -0.20800
C2360       C  0.08005594  0.22780732  0.00924500    -0.13400
C2361       C  0.08831251  0.24610057  0.99604711     0.03300
C2362       C  0.07358484  0.25469030  0.97845688    -0.25500
H2363       H  0.99956817  0.25809700  0.94881778     0.08400
H2364       H  0.04065484  0.26754906  0.94715769     0.12000
H2365       H  0.01286259  0.21180103  0.00428700     0.11900
H2366       H  0.05188692  0.20621875  0.01822825     0.11700
H2367       H  0.09074279  0.22062197  0.02266156     0.12200
H2368       H  0.07931579  0.26885657  0.96809858     0.14200
C2369       C  0.83831964  0.25459051  0.00131511    -0.05800
C2370       C  0.83278974  0.23186450  0.99531600    -0.05800
C2371       C  0.81084067  0.22289633  0.99958541    -0.23900
C2372       C  0.79385802  0.23633396  0.01019233     0.18300
C2373       C  0.79913382  0.25901530  0.01676986     0.15500
C2374       C  0.82118256  0.26799794  0.01221809    -0.19000
C2375       C  0.78198836  0.27252599  0.02708575    -0.20800
C2376       C  0.75938287  0.26431268  0.02909989    -0.13400
C2377       C  0.75344953  0.24234277  0.02103631     0.03300
C2378       C  0.77128834  0.22799012  0.01292619    -0.25500
H2379       H  0.84534549  0.22109680  0.98696767     0.08400
H2380       H  0.80702953  0.20547822  0.99423231     0.12000
H2381       H  0.82496137  0.28553511  0.01717972     0.11900
H2382       H  0.78573750  0.28997230  0.03237485     0.11700
H2383       H  0.74616473  0.27590899  0.03488990     0.12200
H2384       H  0.76700835  0.21109654  0.00625794     0.14200
C2385       C  0.84957124  0.46461185  0.97851361    -0.05800
C2386       C  0.83768336  0.44725425  0.96634281    -0.05800
C2387       C  0.84788882  0.42584287  0.96326869    -0.23900
C2388       C  0.86959777  0.42187018  0.97292746     0.18300
C2389       C  0.88291439  0.44065446  0.98088212     0.15500
C2390       C  0.87333097  0.46244174  0.98150082    -0.19000
C2391       C  0.90415704  0.43700358  0.99141175    -0.20800
C2392       C  0.91103534  0.41490151  0.99638919    -0.13400
C2393       C  0.89711588  0.39603325  0.99029098     0.03300
C2394       C  0.87704282  0.39955836  0.97726198    -0.25500
H2395       H  0.81958301  0.44893636  0.96254275     0.08400
H2396       H  0.83773975  0.41183933  0.95621117     0.12000
H2397       H  0.88304044  0.47630022  0.98951318     0.11900
H2398       H  0.91459658  0.45124479  0.99747929     0.11700
H2399       H  0.92696626  0.41272453  0.00579303     0.12200
H2400       H  0.86648068  0.38513875  0.97192599     0.14200
C2401       C  0.02370641  0.33897014  0.04903944    -0.05800
C2402       C  0.03209446  0.32519024  0.06691603    -0.05800
C2403       C  0.04018582  0.33524184  0.08726811    -0.23900
C2404       C  0.04010825  0.35906553  0.08969384     0.18300
C2405       C  0.03550388  0.37281350  0.07029275     0.15500
C2406       C  0.02787474  0.36256659  0.04976189    -0.19000
C2407       C  0.03537850  0.39660835  0.07265873    -0.20800
C2408       C  0.03640674  0.40652238  0.09454644    -0.13400
C2409       C  0.03763434  0.39271258  0.11424459     0.03300
C2410       C  0.04146385  0.36917874  0.11160131    -0.25500
H2411       H  0.02950600  0.30683571  0.06653615     0.08400
H2412       H  0.04399352  0.32440319  0.10180527     0.12000
H2413       H  0.02193187  0.37319892  0.03573719     0.11900
H2414       H  0.03238591  0.40740957  0.05788428     0.11700
H2415       H  0.03429967  0.42486493  0.09605725     0.12200
H2416       H  0.04277841  0.35840119  0.12661267     0.14200
C2417       C  0.60136481  0.55119501  0.76469203    -0.05800
C2418       C  0.61252196  0.56252074  0.78315467    -0.05800
C2419       C  0.63298617  0.55411591  0.79235424    -0.23900
C2420       C  0.64309556  0.53447222  0.78293442     0.18300
C2421       C  0.63235473  0.52306965  0.76409903     0.15500
C2422       C  0.61129340  0.53122538  0.75538773    -0.19000
C2423       C  0.64307578  0.50391870  0.75416536    -0.20800
C2424       C  0.66406319  0.49606741  0.76292251    -0.13400
C2425       C  0.67438913  0.50682139  0.78215833     0.03300
C2426       C  0.66379928  0.52609867  0.79202198    -0.25500
H2427       H  0.60526907  0.57788460  0.79064616     0.08400
H2428       H  0.64103781  0.56314457  0.80670607     0.12000
H2429       H  0.60301489  0.52248220  0.74097774     0.11900
H2430       H  0.63523959  0.49501879  0.73961862     0.11700
H2431       H  0.67187656  0.48113512  0.75512889     0.12200
H2432       H  0.67178443  0.53465427  0.80671931     0.14200
C2433       C  0.42378965  0.63530792  0.67097960    -0.05800
C2434       C  0.40849238  0.65219540  0.67860434    -0.05800
C2435       C  0.39454601  0.66396444  0.66287245    -0.23900
C2436       C  0.39671302  0.66037824  0.63898214     0.18300
C2437       C  0.41230759  0.64380870  0.63097303     0.15500
C2438       C  0.42481008  0.63059480  0.64703850    -0.19000
C2439       C  0.41551377  0.64122529  0.60706445    -0.20800
C2440       C  0.40397805  0.65539410  0.59135651    -0.13400
C2441       C  0.38788225  0.67153889  0.59904527     0.03300
C2442       C  0.38399082  0.67344228  0.62299694    -0.25500
H2443       H  0.40712327  0.65612232  0.69682260     0.08400
H2444       H  0.38246198  0.67634523  0.66940979     0.12000
H2445       H  0.43607925  0.61728811  0.64086720     0.11900
H2446       H  0.42743475  0.62865644  0.60052393     0.11700
H2447       H  0.40749966  0.65360257  0.57313250     0.12200
H2448       H  0.37178855  0.68587304  0.62925233     0.14200
C2449       C  0.56681172  0.53310112  0.65884467    -0.05800
C2450       C  0.56585450  0.53331772  0.63474146    -0.05800
C2451       C  0.58291616  0.52253682  0.62206656    -0.23900
C2452       C  0.60140323  0.51223713  0.63348763     0.18300
C2453       C  0.60217713  0.51160768  0.65778428     0.15500
C2454       C  0.58455490  0.52156720  0.67027917    -0.19000
C2455       C  0.62117563  0.50224683  0.66919041    -0.20800
C2456       C  0.63990786  0.49465257  0.65656083    -0.13400
C2457       C  0.63948905  0.49587709  0.63244768     0.03300
C2458       C  0.61978920  0.50384111  0.62101588    -0.25500
H2459       H  0.55220663  0.54216585  0.62581138     0.08400
H2460       H  0.58220667  0.52314325  0.60341108     0.12000
H2461       H  0.58550854  0.52174391  0.68896973     0.11900
H2462       H  0.62194437  0.50171502  0.68784946     0.11700
H2463       H  0.65488131  0.48839642  0.66561950     0.12200
H2464       H  0.61926850  0.50496737  0.60237680     0.14200
C2465       C  0.48056761  0.65327353  0.64465907    -0.05800
C2466       C  0.48185795  0.67680393  0.64070543    -0.05800
C2467       C  0.48083447  0.68486634  0.61803525    -0.23900
C2468       C  0.47952509  0.66922237  0.59941104     0.18300
C2469       C  0.47543788  0.64588475  0.60368221     0.15500
C2470       C  0.47524306  0.63828900  0.62626338    -0.19000
C2471       C  0.47516006  0.62989708  0.58549108    -0.20800
C2472       C  0.48292503  0.63624267  0.56388396    -0.13400
C2473       C  0.48989318  0.65879512  0.56017213     0.03300
C2474       C  0.48577521  0.67572361  0.57717794    -0.25500
H2475       H  0.48601852  0.68852603  0.65470510     0.08400
H2476       H  0.48361648  0.70290653  0.61502450     0.12000
H2477       H  0.47409037  0.62004685  0.62928560     0.11900
H2478       H  0.47154925  0.61201242  0.58860278     0.11700
H2479       H  0.48546262  0.62318623  0.55077675     0.12200
H2480       H  0.49095007  0.69327976  0.57430107     0.14200
C2481       C  0.60991924  0.36504785  0.67065549    -0.05800
C2482       C  0.61436762  0.35526433  0.64884187    -0.05800
C2483       C  0.63073312  0.36491897  0.63404267    -0.23900
C2484       C  0.64359674  0.38429716  0.64087332     0.18300
C2485       C  0.63968362  0.39387276  0.66295802     0.15500
C2486       C  0.62277202  0.38450072  0.67743858    -0.19000
C2487       C  0.65271344  0.41278336  0.67025583    -0.20800
C2488       C  0.66927195  0.42232424  0.65592922    -0.13400
C2489       C  0.67327906  0.41357914  0.63354548     0.03300
C2490       C  0.66015423  0.39435791  0.62612863    -0.25500
H2491       H  0.60497891  0.34022074  0.64309120     0.08400
H2492       H  0.63341206  0.35711171  0.61727101     0.12000
H2493       H  0.61985470  0.39218595  0.69420835     0.11900
H2494       H  0.64991786  0.42043026  0.68705834     0.11700
H2495       H  0.67857937  0.43715367  0.66233102     0.12200
H2496       H  0.66275967  0.38728781  0.60901958     0.14200
C2497       C  0.48201953  0.24130915  0.91832469    -0.05800
C2498       C  0.50396369  0.25102672  0.92139994    -0.05800
C2499       C  0.51569577  0.26069344  0.90286332    -0.23900
C2500       C  0.50595777  0.26064230  0.88064606     0.18300
C2501       C  0.48451156  0.24984559  0.87698434     0.15500
C2502       C  0.47261555  0.24046217  0.89579458    -0.19000
C2503       C  0.47519103  0.24891913  0.85459025    -0.20800
C2504       C  0.48668235  0.25902296  0.83616792    -0.13400
C2505       C  0.50744786  0.27083306  0.83974768     0.03300
C2506       C  0.51712243  0.27140310  0.86210403    -0.25500
H2507       H  0.51184849  0.25182223  0.93835751     0.08400
H2508       H  0.53229351  0.26851724  0.90600035     0.12000
H2509       H  0.45591188  0.23276305  0.89290282     0.11900
H2510       H  0.45890168  0.24051081  0.85132916     0.11700
H2511       H  0.47896677  0.25819590  0.81912494     0.12200
H2512       H  0.53333993  0.28008560  0.86500616     0.14200
C2513       C  0.49591258  0.49862205  0.77441389    -0.05800
C2514       C  0.51447473  0.49000483  0.78726246    -0.05800
C2515       C  0.52073698  0.46674822  0.78578496    -0.23900
C2516       C  0.50866183  0.45127777  0.77132345     0.18300
C2517       C  0.48885804  0.45899954  0.75979629     0.15500
C2518       C  0.48259997  0.48249738  0.76145056    -0.19000
C2519       C  0.47664404  0.44340108  0.74552653    -0.20800
C2520       C  0.48453331  0.42083738  0.74182401    -0.13400
C2521       C  0.50508277  0.41324377  0.75197243     0.03300
C2522       C  0.51671155  0.42865660  0.76723851    -0.25500
H2523       H  0.52569775  0.50174076  0.79655877     0.08400
H2524       H  0.53597040  0.46118596  0.79488256     0.12000
H2525       H  0.46872000  0.48871566  0.75072775     0.11900
H2526       H  0.46126668  0.44887106  0.73662442     0.11700
H2527       H  0.47505427  0.40963810  0.73018089     0.12200
H2528       H  0.53241135  0.42320006  0.77558097     0.14200
C2529       C  0.64748800  0.35998776  0.74289708    -0.05800
C2530       C  0.66619146  0.34591881  0.74840007    -0.05800
C2531       C  0.68817917  0.35498957  0.74978193    -0.23900
C2532       C  0.69166609  0.37818410  0.74553566     0.18300
C2533       C  0.67341790  0.39169933  0.73712951     0.15500
C2534       C  0.65133830  0.38250536  0.73594072    -0.19000
C2535       C  0.67709539  0.41483755  0.73255362    -0.20800
C2536       C  0.69745846  0.42521594  0.73967239    -0.13400
C2537       C  0.71397498  0.41250865  0.75170467     0.03300
C2538       C  0.71211959  0.38867973  0.75239929    -0.25500
H2539       H  0.66368847  0.32827178  0.75321907     0.08400
H2540       H  0.70207846  0.34430516  0.75578871     0.12000
H2541       H  0.63703621  0.39331279  0.73130247     0.11900
H2542       H  0.66347799  0.42537057  0.72573317     0.11700
H2543       H  0.69887241  0.44363677  0.73845703     0.12200
H2544       H  0.72520398  0.37878307  0.76110738     0.14200
C2545       C  0.59511108  0.23046299  0.78992779    -0.05800
C2546       C  0.61874895  0.22676402  0.78802641    -0.05800
C2547       C  0.63118795  0.21926360  0.80706599    -0.23900
C2548       C  0.62003535  0.21657573  0.82812978     0.18300
C2549       C  0.59584750  0.21652654  0.82886748     0.15500
C2550       C  0.58340883  0.22193782  0.80905356    -0.19000
C2551       C  0.58469655  0.21507160  0.85007431    -0.20800
C2552       C  0.59731882  0.21740837  0.87045282    -0.13400
C2553       C  0.62118693  0.22046621  0.86966562     0.03300
C2554       C  0.63257953  0.21766791  0.84865062    -0.25500
H2555       H  0.62794410  0.23259828  0.77305066     0.08400
H2556       H  0.64970237  0.21878873  0.80614853     0.12000
H2557       H  0.56504128  0.22424041  0.81037007     0.11900
H2558       H  0.56616759  0.21466587  0.85090685     0.11700
H2559       H  0.58822923  0.21854762  0.88660975     0.12200
H2560       H  0.65108075  0.21902917  0.84800071     0.14200
C2561       C  0.58572848  0.12790201  0.84124579    -0.05800
C2562       C  0.60189098  0.14353299  0.83301189    -0.05800
C2563       C  0.61612699  0.15576594  0.84839734    -0.23900
C2564       C  0.61372763  0.15336233  0.87234439     0.18300
C2565       C  0.59697294  0.13824084  0.88085236     0.15500
C2566       C  0.58357610  0.12510738  0.86524145    -0.19000
C2567       C  0.59361119  0.13693391  0.90478757    -0.20800
C2568       C  0.60647232  0.15073876  0.92009475    -0.13400
C2569       C  0.62359794  0.16532720  0.91183250     0.03300
C2570       C  0.62741891  0.16618680  0.88791918    -0.25500
H2571       H  0.60364071  0.14609733  0.81465346     0.08400
H2572       H  0.62872972  0.16743478  0.84156233     0.12000
H2573       H  0.57089746  0.11329255  0.87172748     0.11900
H2574       H  0.58069294  0.12560572  0.91163544     0.11700
H2575       H  0.60320218  0.14988947  0.93841031     0.12200
H2576       H  0.64050768  0.17752596  0.88140823     0.14200
C2577       C  0.40982154  0.02454768  0.76718658    -0.05800
C2578       C  0.41321428  0.00713086  0.75062304    -0.05800
C2579       C  0.39457301  0.99664767  0.73933514    -0.23900
C2580       C  0.37209049  0.00305564  0.74468353     0.18300
C2581       C  0.36842737  0.01971481  0.76210437     0.15500
C2582       C  0.38728648  0.03062128  0.77295466    -0.19000
C2583       C  0.34593148  0.02546756  0.76809494    -0.20800
C2584       C  0.32726785  0.01554317  0.75636968    -0.13400
C2585       C  0.33069054  0.00003653  0.73808377     0.03300
C2586       C  0.35323214  0.99352781  0.73259498    -0.25500
H2587       H  0.43038479  0.00215558  0.74580785     0.08400
H2588       H  0.39776174  0.98374913  0.72620969     0.12000
H2589       H  0.38445195  0.04384459  0.78584097     0.11900
H2590       H  0.34275906  0.03796690  0.78159953     0.11700
H2591       H  0.31012800  0.02077611  0.76094648     0.12200
H2592       H  0.35608068  0.98131586  0.71872318     0.14200
C2593       C  0.48688074  0.24877858  0.72302715    -0.05800
C2594       C  0.50251866  0.23941127  0.70718711    -0.05800
C2595       C  0.50773427  0.21577939  0.70723720    -0.23900
C2596       C  0.49710448  0.20087134  0.72286189     0.18300
C2597       C  0.47904930  0.20960149  0.73637875     0.15500
C2598       C  0.47391871  0.23325661  0.73617043    -0.19000
C2599       C  0.46779430  0.19498808  0.75158063    -0.20800
C2600       C  0.47535095  0.17253821  0.75474158    -0.13400
C2601       C  0.49445763  0.16384228  0.74298648     0.03300
C2602       C  0.50503298  0.17804839  0.72646412    -0.25500
H2603       H  0.51290189  0.25069777  0.69692778     0.08400
H2604       H  0.52136028  0.20955968  0.69632393     0.12000
H2605       H  0.46180191  0.24002038  0.74852021     0.11900
H2606       H  0.45376066  0.20126289  0.76193885     0.11700
H2607       H  0.46692334  0.16220766  0.76753756     0.12200
H2608       H  0.52001115  0.17190907  0.71747267     0.14200
C2609       C  0.50719650  0.15893311  0.96485158    -0.05800
C2610       C  0.51087667  0.13534829  0.96627069    -0.05800
C2611       C  0.52041729  0.12357533  0.94769999    -0.23900
C2612       C  0.52499093  0.13520659  0.92722173     0.18300
C2613       C  0.52343751  0.15928374  0.92661533     0.15500
C2614       C  0.51561019  0.17112066  0.94596677    -0.19000
C2615       C  0.52660421  0.17078454  0.90579803    -0.20800
C2616       C  0.52801315  0.15834369  0.88521986    -0.13400
C2617       C  0.52696026  0.13436407  0.88548419     0.03300
C2618       C  0.52782365  0.12297273  0.90670251    -0.25500
H2619       H  0.50472245  0.12584655  0.98090336     0.08400
H2620       H  0.52177717  0.10512680  0.94845081     0.12000
H2621       H  0.51270789  0.18939079  0.94480648     0.11900
H2622       H  0.52566549  0.18927250  0.90513355     0.11700
H2623       H  0.52801550  0.16749443  0.86909557     0.12200
H2624       H  0.52774409  0.10444383  0.90715629     0.14200
C2625       C  0.39004135  0.98144645  0.88943994    -0.05800
C2626       C  0.38990919  0.97415221  0.86627996    -0.05800
C2627       C  0.41036209  0.97250462  0.85426113    -0.23900
C2628       C  0.43088406  0.97929012  0.86502067     0.18300
C2629       C  0.43135013  0.98449385  0.88886658     0.15500
C2630       C  0.41098960  0.98460082  0.90112306    -0.19000
C2631       C  0.45149112  0.99277285  0.89929889    -0.20800
C2632       C  0.46938374  0.00009415  0.88548666    -0.13400
C2633       C  0.46743823  0.99809574  0.86139254     0.03300
C2634       C  0.44981777  0.98463089  0.85167547    -0.25500
H2635       H  0.37398218  0.97099370  0.85708489     0.08400
H2636       H  0.40979463  0.96825265  0.83603122     0.12000
H2637       H  0.41134313  0.98971190  0.91914705     0.11900
H2638       H  0.45223062  0.99641041  0.91765087     0.11700
H2639       H  0.48330323  0.00973119  0.89340550     0.12200
H2640       H  0.44859644  0.98231989  0.83312844     0.14200
C2641       C  0.39667115  0.87829990  0.82396232    -0.05800
C2642       C  0.38969456  0.89964903  0.81520304    -0.05800
C2643       C  0.37484661  0.91400988  0.82739779    -0.23900
C2644       C  0.36654603  0.90775833  0.84901912     0.18300
C2645       C  0.37351700  0.88673647  0.85853844     0.15500
C2646       C  0.38830174  0.87195922  0.84586632    -0.19000
C2647       C  0.36564657  0.88108235  0.88063929    -0.20800
C2648       C  0.35122343  0.89599883  0.89305125    -0.13400
C2649       C  0.34377070  0.91680018  0.88355588     0.03300
C2650       C  0.35157656  0.92236282  0.86130228    -0.25500
H2651       H  0.39549150  0.90529345  0.79852179     0.08400
H2652       H  0.36988808  0.93014163  0.81985441     0.12000
H2653       H  0.39341523  0.85575636  0.85312119     0.11900
H2654       H  0.37085857  0.86518952  0.88848533     0.11700
H2655       H  0.34586634  0.89119709  0.91014991     0.12200
H2656       H  0.34642264  0.93838371  0.85366396     0.14200
C2657       C  0.50152650  0.76281063  0.66839221    -0.05800
C2658       C  0.51703678  0.74483171  0.67190423    -0.05800
C2659       C  0.52646544  0.73299609  0.65315107    -0.23900
C2660       C  0.52027806  0.73862718  0.63048676     0.18300
C2661       C  0.50340258  0.75547625  0.62679074     0.15500
C2662       C  0.49431645  0.76761625  0.64570750    -0.19000
C2663       C  0.49634589  0.76027774  0.60418839    -0.20800
C2664       C  0.50675922  0.74941758  0.58540229    -0.13400
C2665       C  0.52472991  0.73378250  0.58874660     0.03300
C2666       C  0.53100254  0.72807160  0.61148096    -0.25500
H2667       H  0.52259399  0.74050884  0.68916748     0.08400
H2668       H  0.53897937  0.71976108  0.65637429     0.12000
H2669       H  0.48189487  0.78102051  0.64275802     0.11900
H2670       H  0.48305382  0.77275384  0.60100429     0.11700
H2671       H  0.50119163  0.75382420  0.56816358     0.12200
H2672       H  0.54431771  0.71554890  0.61439031     0.14200
C2673       C  0.49947690  0.91507735  0.75913325    -0.05800
C2674       C  0.51833391  0.92469177  0.77102575    -0.05800
C2675       C  0.52581879  0.94716248  0.76624980    -0.23900
C2676       C  0.51476129  0.96048936  0.74933676     0.18300
C2677       C  0.49650259  0.95064577  0.73662226     0.15500
C2678       C  0.48904483  0.92823970  0.74157043    -0.19000
C2679       C  0.48516561  0.96380881  0.71994870    -0.20800
C2680       C  0.49017778  0.98716537  0.71761896    -0.13400
C2681       C  0.50680370  0.99801497  0.73168492     0.03300
C2682       C  0.52031164  0.98395045  0.74618485    -0.25500
H2683       H  0.52679099  0.91516019  0.78451423     0.08400
H2684       H  0.53985125  0.95438147  0.77630144     0.12000
H2685       H  0.47466047  0.92115679  0.73190934     0.11900
H2686       H  0.47116424  0.95648505  0.70991321     0.11700
H2687       H  0.47906815  0.99736225  0.70680965     0.12200
H2688       H  0.53291692  0.99196890  0.75750489     0.14200
C2689       C  0.50132809  0.75280367  0.80090763    -0.05800
C2690       C  0.47760536  0.74825945  0.80023031    -0.05800
C2691       C  0.46895717  0.72584276  0.79863437    -0.23900
C2692       C  0.48375082  0.70700860  0.79851862     0.18300
C2693       C  0.50733531  0.71084366  0.80257976     0.15500
C2694       C  0.51610936  0.73369585  0.80318203    -0.19000
C2695       C  0.52179559  0.69168164  0.80408371    -0.20800
C2696       C  0.51344410  0.66942377  0.79926269    -0.13400
C2697       C  0.49061220  0.66574407  0.79202236     0.03300
C2698       C  0.47564582  0.68471972  0.79267564    -0.25500
H2699       H  0.46567483  0.76205442  0.79791138     0.08400
H2700       H  0.45073642  0.72335477  0.79591192     0.12000
H2701       H  0.53445343  0.73649766  0.80344736     0.11900
H2702       H  0.53984953  0.69399008  0.80789369     0.11700
H2703       H  0.52542015  0.65534538  0.79917253     0.12200
H2704       H  0.45796120  0.68237970  0.78730921     0.14200
C2705       C  0.35987514  0.85489311  0.74354924    -0.05800
C2706       C  0.34235394  0.84188917  0.73293466    -0.05800
C2707       C  0.32015420  0.85041625  0.73150186    -0.23900
C2708       C  0.31523883  0.87214452  0.74045809     0.18300
C2709       C  0.33229791  0.88453831  0.75278270     0.15500
C2710       C  0.35445635  0.87572157  0.75445950    -0.19000
C2711       C  0.32738314  0.90631980  0.76164379    -0.20800
C2712       C  0.30673714  0.91681542  0.75591484    -0.13400
C2713       C  0.29076399  0.90552156  0.74144413     0.03300
C2714       C  0.29433219  0.88255568  0.73533258    -0.25500
H2715       H  0.34596200  0.82549870  0.72492295     0.08400
H2716       H  0.30716692  0.84056761  0.72230359     0.12000
H2717       H  0.36767873  0.88560109  0.76330167     0.11900
H2718       H  0.34016806  0.91592141  0.77139930     0.11700
H2719       H  0.30437021  0.93456406  0.76084910     0.12200
H2720       H  0.28194465  0.87368047  0.72440234     0.14200
C2721       C  0.43195246  0.72553007  0.70881419    -0.05800
C2722       C  0.44947503  0.72061928  0.69310330    -0.05800
C2723       C  0.44418506  0.71805498  0.66966553    -0.23900
C2724       C  0.42142564  0.72007865  0.66219243     0.18300
C2725       C  0.40373088  0.72055182  0.67876790     0.15500
C2726       C  0.40923770  0.72142925  0.70221945    -0.19000
C2727       C  0.38109219  0.72383685  0.67178624    -0.20800
C2728       C  0.37634750  0.72937841  0.64906918    -0.13400
C2729       C  0.39404383  0.73106737  0.63281890     0.03300
C2730       C  0.41632874  0.72469506  0.63898686    -0.25500
H2731       H  0.46724277  0.72316665  0.69807088     0.08400
H2732       H  0.45795592  0.71770715  0.65732146     0.12000
H2733       H  0.39578794  0.72465689  0.71461616     0.11900
H2734       H  0.36732816  0.72400986  0.68419532     0.11700
H2735       H  0.35882354  0.73336451  0.64437629     0.12200
H2736       H  0.42992236  0.72572896  0.62644222     0.14200
loop_ 
_geom_bond_atom_site_label_1 
_geom_bond_atom_site_label_2 
_geom_bond_distance 
_geom_bond_site_symmetry_2 
_ccdc_geom_bond_type 
Zr1           O2   2.456       .  S
Zr1           O3   2.456       .  S
Zr1           O4   2.405       .  S
Zr1           O7   2.402       .  S
Zr1           O9   2.361       .  S
Zr1          O10   2.388       .  S
Zr1          O11   2.443       .  S
Zr1          O12   2.421       .  S
O2           H58   0.988       .  S
O2           H66   0.990       .  S
O3           C23   1.284       .  A
O4           C25   1.273       .  A
O5          Zr15   2.563       .  S
O5           C24   1.301       .  A
O6          Zr14   2.415       .  S
O6           C25   1.283       .  A
O7           C24   1.261       .  A
O8          Zr16   2.422       .  S
O8           C23   1.279       .  A
O9          Zr14   2.391       .  S
O9          Zr16   2.368       .  S
O10         Zr15   2.434       .  S
O10         Zr16   2.400       .  S
O10          H45   0.966       .  S
O11         Zr14   2.398       .  S
O11         Zr31   2.451       .  S
O11          H48   0.966       .  S
O12         Zr15   2.365       .  S
O12         Zr31   2.387       .  S
Zr13         O38   2.439       .  S
Zr13         O32   2.425       .  S
Zr13         O40   2.413       .  S
Zr13         O28   2.431       .  S
Zr13         O19   2.387       .  S
Zr13         O20   2.403       .  S
Zr13         O21   2.362       .  S
Zr13         O22   2.387       .  S
Zr14         O33   2.435       .  S
Zr14         O26   2.439       .  S
Zr14         O27   2.415       .  S
Zr14         O20   2.403       .  S
Zr14         O21   2.383       .  S
Zr15         O17   2.439       .  S
Zr15         O39   2.439       .  S
Zr15         O41   2.534       .  S
Zr15         O19   2.397       .  S
Zr15         O22   2.413       .  S
Zr16         O42   2.438       .  S
Zr16         O43   2.437       .  S
Zr16         O18   2.437       .  S
Zr16         O19   2.383       .  S
Zr16         O20   2.413       .  S
O17          H54   0.989       .  S
O18          H49   0.990       .  S
O18          H63   0.990       .  S
O20          H46   0.966       .  S
O21         Zr31   2.335       .  S
O22         Zr31   2.388       .  S
O22          H47   0.967       .  S
C23        C2657   1.489       .  S
C24        C2689   1.513       .  S
C25        C2721   1.461       .  S
O26          H62   0.990       .  S
O27          C29   1.282       .  A
O28          C29   1.285       .  A
C29        C2705   1.473       .  S
O30         Zr31   2.440       .  S
O30          H59   0.991       .  S
Zr31         O34   2.436       .  S
Zr31         O35   2.439       .  S
Zr31         O36   2.504       .  S
O32          C37   1.285       .  A
O33          H50   0.990       .  S
O33          H65   0.990       .  S
O34          H51   0.990       .  S
O35          H55   0.990       .  S
O35          H64   0.989       .  S
O36          C37   1.296       .  A
C37        C2641   1.516       .  S
O38          H57   0.990       .  S
O38          H61   0.990       .  S
O39          H53   0.991       .  S
O39          H60   0.989       .  S
O40          C44   1.284       .  A
O41          C44   1.306       .  A
O42          H52   0.990       .  S
O43          H56   0.990       .  S
C44        C2673   1.510       .  S
Zr67         O68   2.442       .  S
Zr67         O69   2.441       .  S
Zr67         O70   2.428       .  S
Zr67         O73   2.434       .  S
Zr67         O75   2.363       .  S
Zr67         O76   2.397       .  S
Zr67         O77   2.414       .  S
Zr67         O78   2.398       .  S
O68         H124   0.990       .  S
O68         H132   0.990       .  S
O69          C89   1.284       .  A
O70          C91   1.284       .  A
O71         Zr81   2.527       .  S
O71          C90   1.303       .  A
O72         Zr80   2.402       .  S
O72          C91   1.280       .  A
O73          C90   1.284       .  A
O74         Zr82   2.453       .  S
O74          C89   1.285       .  A
O75         Zr80   2.366       .  S
O75         Zr82   2.346       .  S
O76         Zr81   2.417       .  S
O76         Zr82   2.396       .  S
O76         H111   0.966       .  S
O77         Zr80   2.397       .  S
O77         Zr97   2.417       .  S
O77         H114   0.966       .  S
O78         Zr81   2.400       .  S
O78         Zr97   2.393       .  S
Zr79        O104   2.436   1_545  S
Zr79         O98   2.432       .  S
Zr79        O106   2.359       .  S
Zr79         O94   2.399       .  S
Zr79         O85   2.410       .  S
Zr79         O86   2.396       .  S
Zr79         O87   2.361       .  S
Zr79         O88   2.381       .  S
Zr80         O99   2.436       .  S
Zr80         O92   2.438       .  S
Zr80         O93   2.415       .  S
Zr80         O86   2.385       .  S
Zr80         O87   2.386       .  S
Zr81         O83   2.434       .  S
Zr81        O105   2.435       .  S
Zr81        O107   2.553       .  S
Zr81         O85   2.394       .  S
Zr81         O88   2.392       .  S
Zr82        O108   2.439       .  S
Zr82        O109   2.439       .  S
Zr82         O84   2.438       .  S
Zr82         O85   2.401       .  S
Zr82         O86   2.410       .  S
O83         H120   0.990       .  S
O84         H115   0.990       .  S
O84         H129   0.990       .  S
O86         H112   0.966       .  S
O87         Zr97   2.372       .  S
O88         Zr97   2.376       .  S
O88         H113   0.965       .  S
C89        C2561   1.484       .  S
C90        C2601   1.507       .  S
C91        C2617   1.473       .  S
O92         H128   0.990       .  S
O93          C95   1.281       .  A
O94          C95   1.279       .  A
C95        C2633   1.468   1_545  S
O96         Zr97   2.435       .  S
O96         H125   0.990       .  S
Zr97        O100   2.434       .  S
Zr97        O101   2.436       .  S
Zr97        O102   2.458       .  S
O98         C103   1.284       .  A
O99         H116   0.990       .  S
O99         H131   0.990       .  S
O100        H117   0.990       .  S
O101        H121   0.990       .  S
O101        H130   0.990       .  S
O102        C103   1.288       .  A
C103       C2577   1.489       .  S
O104        H123   0.990       .  S
O104        H127   0.990       .  S
O105        H119   0.990       .  S
O105        H126   0.990       .  S
O106        C110   1.262       .  A
O107        C110   1.303       .  A
O108        H118   0.990       .  S
O109        H122   0.990       .  S
C110       C2681   1.492   1_545  S
Zr133       O134   2.431       .  S
Zr133       O135   2.438       .  S
Zr133       O136   2.393       .  S
Zr133       O139   2.388       .  S
Zr133       O141   2.361       .  S
Zr133       O142   2.382       .  S
Zr133       O143   2.407       .  S
Zr133       O144   2.419       .  S
O134        H190   0.988       .  S
O134        H198   0.988       .  S
O135        C155   1.284       .  A
O136        C157   1.277       .  A
O137       Zr147   2.553       .  S
O137        C156   1.301       .  A
O138       Zr146   2.426       .  S
O138        C157   1.283       .  A
O139        C156   1.263       .  A
O140       Zr148   2.457       .  S
O140        C155   1.287       .  A
O141       Zr146   2.380       .  S
O141       Zr148   2.365       .  S
O142       Zr147   2.417       .  S
O142       Zr148   2.390       .  S
O142        H177   0.966       .  S
O143       Zr146   2.388       .  S
O143       Zr163   2.417       .  S
O143        H180   0.965       .  S
O144       Zr147   2.390       .  S
O144       Zr163   2.396       .  S
Zr145       O170   2.438       .  S
Zr145       O164   2.457       .  S
Zr145       O172   2.451       .  S
Zr145       O160   2.438       .  S
Zr145       O151   2.392       .  S
Zr145       O152   2.424       .  S
Zr145       O153   2.369       .  S
Zr145       O154   2.398       .  S
Zr146       O165   2.440       .  S
Zr146       O158   2.436       .  S
Zr146       O159   2.398       .  S
Zr146       O152   2.404       .  S
Zr146       O153   2.384       .  S
Zr147       O149   2.435       .  S
Zr147       O171   2.436       .  S
Zr147       O173   2.531       .  S
Zr147       O151   2.393       .  S
Zr147       O154   2.421       .  S
Zr148       O174   2.434       .  S
Zr148       O175   2.437       .  S
Zr148       O150   2.439       .  S
Zr148       O151   2.391       .  S
Zr148       O152   2.421       .  S
O149        H186   0.990       .  S
O150        H181   0.990       .  S
O150        H195   0.990       .  S
O152        H178   0.959       .  S
O153       Zr163   2.345       .  S
O154       Zr163   2.395       .  S
O154        H179   0.966       .  S
C155       C2505   1.492       .  S
C156       C2593   1.505       .  S
C157       C2545   1.465       .  S
O158        H194   0.990       .  S
O159        C161   1.276       .  A
O160        C161   1.285       .  A
C161       C2529   1.465       .  S
O162       Zr163   2.437       .  S
O162        H191   0.990       .  S
Zr163       O166   2.435       .  S
Zr163       O167   2.439       .  S
Zr163       O168   2.458       .  S
O164        C169   1.289       .  A
O165        H182   0.990       .  S
O165        H197   0.990       .  S
O166        H183   0.990       .  S
O167        H187   0.990       .  S
O167        H196   0.990       .  S
O168        C169   1.288       .  A
C169       C2481   1.507       .  S
O170        H189   0.990       .  S
O170        H193   0.990       .  S
O171        H185   0.990       .  S
O171        H192   0.990       .  S
O172        C176   1.289       .  A
O173        C176   1.305       .  A
O174        H184   0.990       .  S
O175        H188   0.990       .  S
C176       C2521   1.521       .  S
Zr199       O200   2.440       .  S
Zr199       O201   2.460       .  S
Zr199       O202   2.450       .  S
Zr199       O205   2.437       .  S
Zr199       O207   2.361       .  S
Zr199       O208   2.404       .  S
Zr199       O209   2.421       .  S
Zr199       O210   2.398       .  S
O200        H256   0.990       .  S
O200        H264   0.990       .  S
O201        C221   1.290       .  A
O202        C223   1.285       .  A
O203       Zr213   2.536       .  S
O203        C222   1.305       .  A
O204       Zr212   2.400       .  S
O204        C223   1.280       .  A
O205        C222   1.284       .  A
O206       Zr214   2.460       .  S
O206        C221   1.287       .  A
O207       Zr212   2.366       .  S
O207       Zr214   2.337       .  S
O208       Zr213   2.428       .  S
O208       Zr214   2.396       .  S
O208        H243   0.966       .  S
O209       Zr212   2.391       .  S
O209       Zr229   2.419       .  S
O209        H246   0.966       .  S
O210       Zr213   2.382       .  S
O210       Zr229   2.369       .  S
Zr211       O236   2.446       .  S
Zr211       O230   2.456       .  S
Zr211       O238   2.371       .  S
Zr211       O226   2.388       .  S
Zr211       O217   2.398       .  S
Zr211       O218   2.409       .  S
Zr211       O219   2.369       .  S
Zr211       O220   2.382       .  S
Zr212       O231   2.435       .  S
Zr212       O224   2.437       .  S
Zr212       O225   2.417       .  S
Zr212       O218   2.401       .  S
Zr212       O219   2.380       .  S
Zr213       O215   2.434       .  S
Zr213       O237   2.435       .  S
Zr213       O239   2.574       .  S
Zr213       O217   2.381       .  S
Zr213       O220   2.405       .  S
Zr214       O240   2.438       .  S
Zr214       O241   2.434       .  S
Zr214       O216   2.436       .  S
Zr214       O217   2.395       .  S
Zr214       O218   2.426       .  S
O215        H252   0.990       .  S
O216        H247   0.990       .  S
O216        H261   0.990       .  S
O218        H244   0.966       .  S
O219       Zr229   2.369       .  S
O220       Zr229   2.404       .  S
O220        H245   0.966       .  S
C221       C2433   1.502       .  S
C222       C2697   1.512       .  S
C223       C2465   1.470       .  S
O224        H260   0.991       .  S
O225        C227   1.279       .  A
O226        C227   1.273       .  A
C227       C2449   1.456       .  S
O228       Zr229   2.434       .  S
O228        H257   0.990       .  S
Zr229       O232   2.439       .  S
Zr229       O233   2.436       .  S
Zr229       O234   2.428       .  S
O230        C235   1.286       .  A
O231        H248   0.990       .  S
O231        H263   0.990       .  S
O232        H249   0.990       .  S
O233        H253   0.990       .  S
O233        H262   0.990       .  S
O234        C235   1.283       .  A
C235       C2417   1.488       .  S
O236        H255   0.991       .  S
O236        H259   0.990       .  S
O237        H251   0.990       .  S
O237        H258   0.990       .  S
O238        C242   1.269       .  A
O239        C242   1.311       .  A
O240        H250   0.990       .  S
O241        H254   0.990       .  S
C242       C2513   1.507       .  S
Zr265       O266   2.431   1_654  S
Zr265       O267   2.440       .  S
Zr265       O268   2.390   1_655  S
Zr265       O271   2.380       .  S
Zr265       O273   2.351       .  S
Zr265       O274   2.381       .  S
Zr265       O275   2.416   1_554  S
Zr265       O276   2.424   1_554  S
O266        H322   0.990       .  S
O266        H330   0.990   1_556  S
O267        C287   1.286       .  A
O268        C289   1.275       .  A
O269       Zr279   2.556       .  S
O269        C288   1.300       .  A
O270       Zr278   2.424       .  S
O270        C289   1.282   1_655  A
O271        C288   1.260   1_554  A
O272       Zr280   2.463       .  S
O272        C287   1.289       .  A
O273       Zr278   2.373       .  S
O273       Zr280   2.362       .  S
O274       Zr279   2.411   1_554  S
O274       Zr280   2.385       .  S
O274        H309   0.966       .  S
O275       Zr278   2.385   1_556  S
O275       Zr295   2.434       .  S
O275        H312   0.966       .  S
O276       Zr279   2.386       .  S
O276       Zr295   2.399       .  S
Zr277       O302   2.438   1_556  S
Zr277       O296   2.421       .  S
Zr277       O304   2.420       .  S
Zr277       O292   2.443       .  S
Zr277       O283   2.397   1_556  S
Zr277       O284   2.408   1_556  S
Zr277       O285   2.357       .  S
Zr277       O286   2.396       .  S
Zr278       O297   2.439       .  S
Zr278       O290   2.434       .  S
Zr278       O291   2.395       .  S
Zr278       O284   2.401       .  S
Zr278       O285   2.372   1_554  S
Zr279       O281   2.437       .  S
Zr279       O303   2.436   1_556  S
Zr279       O305   2.524       .  S
Zr279       O283   2.404   1_556  S
Zr279       O286   2.411       .  S
Zr280       O306   2.438       .  S
Zr280       O307   2.437       .  S
Zr280       O282   2.438       .  S
Zr280       O283   2.397       .  S
Zr280       O284   2.418       .  S
O281        H318   0.990       .  S
O282        H313   0.990       .  S
O282        H327   0.990       .  S
O284        H310   0.966       .  S
O285       Zr295   2.337       .  S
O286       Zr295   2.391       .  S
O286        H311   0.966       .  S
C287       C2337   1.497       .  S
C288       C2353   1.510   1_655  S
C289       C2401   1.466       .  S
O290        H326   0.989       .  S
O291        C293   1.279   1_554  A
O292        C293   1.286       .  A
C293       C2393   1.474       .  S
O294       Zr295   2.434       .  S
O294        H323   0.990       .  S
Zr295       O298   2.436       .  S
Zr295       O299   2.439       .  S
Zr295       O300   2.481       .  S
O296        C301   1.283       .  A
O297        H314   0.990       .  S
O297        H329   0.990   1_554  S
O298        H315   0.990       .  S
O299        H319   0.990       .  S
O299        H328   0.990       .  S
O300        C301   1.290       .  A
C301       C2329   1.505       .  S
O302        H321   0.990       .  S
O302        H325   0.991       .  S
O303        H317   0.990       .  S
O303        H324   0.990   1_554  S
O304        C308   1.284       .  A
O305        C308   1.304       .  A
O306        H316   0.990       .  S
O307        H320   0.990       .  S
C308       C2369   1.511   1_556  S
Zr331       O332   2.439       .  S
Zr331       O333   2.439       .  S
Zr331       O334   2.411       .  S
Zr331       O337   2.383       .  S
Zr331       O339   2.363       .  S
Zr331       O340   2.404       .  S
Zr331       O341   2.402       .  S
Zr331       O342   2.402       .  S
O332        H388   0.990       .  S
O332        H396   0.990       .  S
O333        C353   1.286       .  A
O334        C355   1.276       .  A
O335       Zr345   2.543       .  S
O335        C354   1.295       .  A
O336       Zr344   2.435       .  S
O336        C355   1.284       .  A
O337        C354   1.262   1_556  A
O338       Zr346   2.446       .  S
O338        C353   1.286       .  A
O339       Zr344   2.373       .  S
O339       Zr346   2.357       .  S
O340       Zr345   2.407   1_556  S
O340       Zr346   2.388       .  S
O340        H375   0.966   1_556  S
O341       Zr344   2.389       .  S
O341       Zr361   2.434       .  S
O341        H378   0.966       .  S
O342       Zr345   2.401   1_556  S
O342       Zr361   2.385       .  S
Zr343       O368   2.438       .  S
Zr343       O362   2.444       .  S
Zr343       O370   2.432       .  S
Zr343       O358   2.409       .  S
Zr343       O349   2.390       .  S
Zr343       O350   2.417       .  S
Zr343       O351   2.367       .  S
Zr343       O352   2.392       .  S
Zr344       O363   2.438       .  S
Zr344       O356   2.434       .  S
Zr344       O357   2.427       .  S
Zr344       O350   2.404       .  S
Zr344       O351   2.370       .  S
Zr345       O347   2.434       .  S
Zr345       O369   2.435       .  S
Zr345       O371   2.543       .  S
Zr345       O349   2.385   1_554  S
Zr345       O352   2.423   1_554  S
Zr346       O372   2.434       .  S
Zr346       O373   2.436       .  S
Zr346       O348   2.436       .  S
Zr346       O349   2.378       .  S
Zr346       O350   2.417       .  S
O347        H384   0.990       .  S
O348        H379   0.990       .  S
O348        H393   0.990       .  S
O350        H376   0.967       .  S
O351       Zr361   2.338       .  S
O352       Zr361   2.412       .  S
O352        H377   0.965       .  S
C353       C2273   1.484       .  S
C354       C2377   1.497       .  S
C355       C2305   1.462       .  S
O356        H392   0.990       .  S
O357        C359   1.286       .  A
O358        C359   1.280       .  A
C359       C2553   1.469       .  S
O360       Zr361   2.441       .  S
O360        H389   0.991       .  S
Zr361       O364   2.438       .  S
Zr361       O365   2.441       .  S
Zr361       O366   2.450       .  S
O362        C367   1.285       .  A
O363        H380   0.990       .  S
O363        H395   0.990       .  S
O364        H381   0.989       .  S
O365        H385   0.990       .  S
O365        H394   0.990       .  S
O366        C367   1.285       .  A
C367       C2569   1.485       .  S
O368        H387   0.990       .  S
O368        H391   0.990       .  S
O369        H383   0.990       .  S
O369        H390   0.991       .  S
O370        C374   1.285   1_556  A
O371        C374   1.305       .  A
O372        H382   0.990   1_556  S
O373        H386   0.990       .  S
C374       C2289   1.515       .  S
Zr397       O398   2.434   1_556  S
Zr397       O399   2.450       .  S
Zr397       O400   2.382       .  S
Zr397       O403   2.369       .  S
Zr397       O405   2.356       .  S
Zr397       O406   2.384       .  S
Zr397       O407   2.417   1_556  S
Zr397       O408   2.421   1_556  S
O398        H454   0.990       .  S
O398        H462   0.990       .  S
O399        C419   1.288       .  A
O400        C421   1.274       .  A
O401       Zr411   2.569       .  S
O401        C420   1.303       .  A
O402       Zr410   2.437   1_556  S
O402        C421   1.286       .  A
O403        C420   1.258   1_556  A
O404       Zr412   2.449       .  S
O404        C419   1.287       .  A
O405       Zr410   2.375   1_556  S
O405       Zr412   2.362       .  S
O406       Zr411   2.406   1_556  S
O406       Zr412   2.385       .  S
O406        H441   0.966       .  S
O407       Zr410   2.385       .  S
O407       Zr427   2.437       .  S
O407        H444   0.966       .  S
O408       Zr411   2.384       .  S
O408       Zr427   2.415       .  S
Zr409       O434   2.443       .  S
Zr409       O428   2.441       .  S
Zr409       O436   2.445       .  S
Zr409       O424   2.421       .  S
Zr409       O415   2.391   1_554  S
Zr409       O416   2.415   1_554  S
Zr409       O417   2.369       .  S
Zr409       O418   2.395       .  S
Zr410       O429   2.436       .  S
Zr410       O422   2.435   1_554  S
Zr410       O423   2.405       .  S
Zr410       O416   2.403   1_554  S
Zr410       O417   2.377       .  S
Zr411       O413   2.436       .  S
Zr411       O435   2.437       .  S
Zr411       O437   2.524       .  S
Zr411       O415   2.403   1_554  S
Zr411       O418   2.421       .  S
Zr412       O438   2.435       .  S
Zr412       O439   2.435       .  S
Zr412       O414   2.436       .  S
Zr412       O415   2.383       .  S
Zr412       O416   2.409       .  S
O413        H450   0.990       .  S
O414        H445   0.990       .  S
O414        H459   0.990       .  S
O416        H442   0.966       .  S
O417       Zr427   2.341       .  S
O418       Zr427   2.394       .  S
O418        H443   0.965       .  S
C419       C2497   1.502       .  S
C420       C2297   1.512       .  S
C421       C2609   1.461       .  S
O422        H458   0.989       .  S
O423        C425   1.281       .  A
O424        C425   1.282       .  A
C425       C2257   1.469       .  S
O426       Zr427   2.435       .  S
O426        H455   0.990       .  S
Zr427       O430   2.437       .  S
Zr427       O431   2.442       .  S
Zr427       O432   2.498       .  S
O428        C433   1.286       .  A
O429        H446   0.990       .  S
O429        H461   0.990       .  S
O430        H447   0.990       .  S
O431        H451   0.990       .  S
O431        H460   0.990       .  S
O432        C433   1.293       .  A
C433       C2233   1.519       .  S
O434        H453   0.990   1_554  S
O434        H457   0.990       .  S
O435        H449   0.990   1_554  S
O435        H456   0.990       .  S
O436        C440   1.287       .  A
O437        C440   1.302       .  A
O438        H448   0.990       .  S
O439        H452   0.990       .  S
C440       C2241   1.507   1_554  S
Zr463       O464   2.443       .  S
Zr463       O465   2.438       .  S
Zr463       O466   2.440       .  S
Zr463       O469   2.445       .  S
Zr463       O471   2.360       .  S
Zr463       O472   2.397       .  S
Zr463       O473   2.413       .  S
Zr463       O474   2.392       .  S
O464        H520   0.990       .  S
O464        H528   0.990       .  S
O465        C485   1.286       .  A
O466        C487   1.286       .  A
O467       Zr477   2.544   1_556  S
O467        C486   1.306   1_556  A
O468       Zr476   2.399       .  S
O468        C487   1.279       .  A
O469        C486   1.288       .  A
O470       Zr478   2.460       .  S
O470        C485   1.287       .  A
O471       Zr476   2.365       .  S
O471       Zr478   2.342       .  S
O472       Zr477   2.420       .  S
O472       Zr478   2.402       .  S
O472        H507   0.967       .  S
O473       Zr476   2.399       .  S
O473       Zr493   2.417       .  S
O473        H510   0.971       .  S
O474       Zr477   2.398       .  S
O474       Zr493   2.384       .  S
Zr475       O500   2.435       .  S
Zr475       O494   2.431       .  S
Zr475       O502   2.386   1_554  S
Zr475       O490   2.415       .  S
Zr475       O481   2.417       .  S
Zr475       O482   2.410       .  S
Zr475       O483   2.360       .  S
Zr475       O484   2.388       .  S
Zr476       O495   2.435       .  S
Zr476       O488   2.436       .  S
Zr476       O489   2.414       .  S
Zr476       O482   2.386       .  S
Zr476       O483   2.380       .  S
Zr477       O479   2.435   1_554  S
Zr477       O501   2.436   1_554  S
Zr477       O503   2.560   1_554  S
Zr477       O481   2.390       .  S
Zr477       O484   2.414       .  S
Zr478       O504   2.440       .  S
Zr478       O505   2.439       .  S
Zr478       O480   2.440       .  S
Zr478       O481   2.395       .  S
Zr478       O482   2.428       .  S
O479        H516   0.990       .  S
O480        H511   0.990       .  S
O480        H525   0.990       .  S
O482        H508   0.960       .  S
O483       Zr493   2.366       .  S
O484       Zr493   2.386       .  S
O484        H509   0.965   1_554  S
C485       C2177   1.501       .  S
C486       C2361   1.520   1_554  S
C487       C2209   1.476       .  S
O488        H524   0.990       .  S
O489        C491   1.281       .  A
O490        C491   1.280       .  A
C491       C2201   1.464       .  S
O492       Zr493   2.434       .  S
O492        H521   0.990       .  S
Zr493       O496   2.435       .  S
Zr493       O497   2.438       .  S
Zr493       O498   2.447       .  S
O494        C499   1.284       .  A
O495        H512   0.990       .  S
O495        H527   0.989       .  S
O496        H513   0.990       .  S
O497        H517   0.990   1_554  S
O497        H526   0.990   1_554  S
O498        C499   1.285       .  A
C499       C2161   1.487       .  S
O500        H519   0.990       .  S
O500        H523   0.990       .  S
O501        H515   0.990       .  S
O501        H522   0.990       .  S
O502        C506   1.264       .  A
O503        C506   1.303       .  A
O504        H514   0.990       .  S
O505        H518   0.990       .  S
C506       C2249   1.507       .  S
Zr529       O530   2.447       .  S
Zr529       O531   2.441       .  S
Zr529       O532   2.447       .  S
Zr529       O535   2.452       .  S
Zr529       O537   2.369       .  S
Zr529       O538   2.409       .  S
Zr529       O539   2.415       .  S
Zr529       O540   2.379       .  S
O530        H586   0.990       .  S
O530        H594   0.991       .  S
O531        C551   1.285       .  A
O532        C553   1.285       .  A
O533       Zr543   2.531       .  S
O533        C552   1.304       .  A
O534       Zr542   2.400       .  S
O534        C553   1.279       .  A
O535        C552   1.287       .  A
O536       Zr544   2.449       .  S
O536        C551   1.285       .  A
O537       Zr542   2.373       .  S
O537       Zr544   2.356       .  S
O538       Zr543   2.429       .  S
O538       Zr544   2.399       .  S
O538        H573   0.966       .  S
O539       Zr542   2.400       .  S
O539       Zr559   2.416       .  S
O539        H576   0.967       .  S
O540       Zr543   2.386       .  S
O540       Zr559   2.367       .  S
Zr541       O566   2.441       .  S
Zr541       O560   2.448       .  S
Zr541       O568   2.383       .  S
Zr541       O556   2.394       .  S
Zr541       O547   2.411       .  S
Zr541       O548   2.411       .  S
Zr541       O549   2.367       .  S
Zr541       O550   2.382       .  S
Zr542       O561   2.437       .  S
Zr542       O554   2.436       .  S
Zr542       O555   2.416       .  S
Zr542       O548   2.381       .  S
Zr542       O549   2.391       .  S
Zr543       O545   2.435       .  S
Zr543       O567   2.436       .  S
Zr543       O569   2.564       .  S
Zr543       O547   2.377       .  S
Zr543       O550   2.409       .  S
Zr544       O570   2.434       .  S
Zr544       O571   2.433       .  S
Zr544       O546   2.437       .  S
Zr544       O547   2.392       .  S
Zr544       O548   2.415       .  S
O545        H582   0.990       .  S
O546        H577   0.990       .  S
O546        H591   0.990       .  S
O548        H574   0.966       .  S
O549       Zr559   2.365       .  S
O550       Zr559   2.395       .  S
O550        H575   0.966       .  S
C551       C2321   1.489       .  S
C552       C2129   1.505       .  S
C553       C2313   1.480       .  S
O554        H590   0.990       .  S
O555        C557   1.283       .  A
O556        C557   1.275       .  A
C557       C2537   1.462       .  S
O558       Zr559   2.435       .  S
O558        H587   0.990       .  S
Zr559       O562   2.434       .  S
Zr559       O563   2.438       .  S
Zr559       O564   2.427       .  S
O560        C565   1.285       .  A
O561        H578   0.990       .  S
O561        H593   0.990       .  S
O562        H579   0.990       .  S
O563        H583   0.990       .  S
O563        H592   0.990       .  S
O564        C565   1.282       .  A
C565       C2425   1.483       .  S
O566        H585   0.990       .  S
O566        H589   0.991       .  S
O567        H581   0.990       .  S
O567        H588   0.990       .  S
O568        C572   1.267       .  A
O569        C572   1.305       .  A
O570        H580   0.991       .  S
O571        H584   0.991       .  S
C572       C2145   1.509       .  S
Zr595       O596   2.446       .  S
Zr595       O597   2.439       .  S
Zr595       O598   2.450       .  S
Zr595       O601   2.454       .  S
Zr595       O603   2.366       .  S
Zr595       O604   2.402       .  S
Zr595       O605   2.419       .  S
Zr595       O606   2.394       .  S
O596        H652   0.991       .  S
O596        H660   0.990       .  S
O597        C617   1.283       .  A
O598        C619   1.288       .  A
O599       Zr609   2.544       .  S
O599        C618   1.307       .  A
O600       Zr608   2.380       .  S
O600        C619   1.276       .  A
O601        C618   1.287       .  A
O602       Zr610   2.466       .  S
O602        C617   1.287       .  A
O603       Zr608   2.377       .  S
O603       Zr610   2.354       .  S
O604       Zr609   2.422       .  S
O604       Zr610   2.394       .  S
O604        H639   0.965       .  S
O605       Zr608   2.407       .  S
O605       Zr625   2.420       .  S
O605        H642   0.966       .  S
O606       Zr609   2.397       .  S
O606       Zr625   2.378       .  S
Zr607       O632   2.432       .  S
Zr607       O626   2.413       .  S
Zr607       O634   2.356       .  S
Zr607       O622   2.402       .  S
Zr607       O613   2.417       .  S
Zr607       O614   2.399       .  S
Zr607       O615   2.351       .  S
Zr607       O616   2.392       .  S
Zr608       O627   2.435       .  S
Zr608       O620   2.435       .  S
Zr608       O621   2.422       .  S
Zr608       O614   2.390       .  S
Zr608       O615   2.364       .  S
Zr609       O611   2.434       .  S
Zr609       O633   2.438       .  S
Zr609       O635   2.576       .  S
Zr609       O613   2.390       .  S
Zr609       O616   2.397       .  S
Zr610       O636   2.440       .  S
Zr610       O637   2.438       .  S
Zr610       O612   2.440       .  S
Zr610       O613   2.401       .  S
Zr610       O614   2.432       .  S
O611        H648   0.990       .  S
O612        H643   0.990       .  S
O612        H657   0.990       .  S
O614        H640   0.966       .  S
O615       Zr625   2.361       .  S
O616       Zr625   2.378       .  S
O616        H641   0.966       .  S
C617       C2041   1.501       .  S
C618       C2081   1.518       .  S
C619       C2097   1.474       .  S
O620        H656   0.990       .  S
O621        C623   1.282       .  A
O622        C623   1.277       .  A
C623       C2113   1.465       .  S
O624       Zr625   2.435       .  S
O624        H653   0.990       .  S
Zr625       O628   2.437       .  S
Zr625       O629   2.437       .  S
Zr625       O630   2.443       .  S
O626        C631   1.280       .  A
O627        H644   0.990       .  S
O627        H659   0.990       .  S
O628        H645   0.990       .  S
O629        H649   0.990       .  S
O629        H658   0.990       .  S
O630        C631   1.286       .  A
C631       C2049   1.477       .  S
O632        H651   0.990       .  S
O632        H655   0.990       .  S
O633        H647   0.989       .  S
O633        H654   0.990       .  S
O634        C638   1.258       .  A
O635        C638   1.306       .  A
O636        H646   0.990       .  S
O637        H650   0.990       .  S
C638       C2065   1.505       .  S
Zr661       O662   2.434       .  S
Zr661       O663   2.456       .  S
Zr661       O664   2.406       .  S
Zr661       O667   2.354       .  S
Zr661       O669   2.352       .  S
Zr661       O670   2.383       .  S
Zr661       O671   2.411       .  S
Zr661       O672   2.426       .  S
O662        H718   0.990       .  S
O662        H726   0.990       .  S
O663        C683   1.288       .  A
O664        C685   1.278       .  A
O665       Zr675   2.588       .  S
O665        C684   1.310       .  A
O666       Zr674   2.409       .  S
O666        C685   1.281       .  A
O667        C684   1.261       .  A
O668       Zr676   2.434       .  S
O668        C683   1.283       .  A
O669       Zr674   2.376       .  S
O669       Zr676   2.367       .  S
O670       Zr675   2.408       .  S
O670       Zr676   2.381       .  S
O670        H705   0.966       .  S
O671       Zr674   2.371       .  S
O671       Zr691   2.428       .  S
O671        H708   0.966       .  S
O672       Zr675   2.387       .  S
O672       Zr691   2.413       .  S
Zr673       O698   2.441       .  S
Zr673       O692   2.440       .  S
Zr673       O700   2.425       .  S
Zr673       O688   2.436       .  S
Zr673       O679   2.395       .  S
Zr673       O680   2.411       .  S
Zr673       O681   2.366       .  S
Zr673       O682   2.398       .  S
Zr674       O693   2.439       .  S
Zr674       O686   2.435       .  S
Zr674       O687   2.376       .  S
Zr674       O680   2.402       .  S
Zr674       O681   2.373       .  S
Zr675       O677   2.436       .  S
Zr675       O699   2.437       .  S
Zr675       O701   2.557       .  S
Zr675       O679   2.399       .  S
Zr675       O682   2.423       .  S
Zr676       O702   2.438       .  S
Zr676       O703   2.437       .  S
Zr676       O678   2.436       .  S
Zr676       O679   2.381       .  S
Zr676       O680   2.406       .  S
O677        H714   0.990       .  S
O678        H709   0.991       .  S
O678        H723   0.990       .  S
O680        H706   0.966       .  S
O681       Zr691   2.351       .  S
O682       Zr691   2.393       .  S
O682        H707   0.966       .  S
C683       C2009   1.492       .  S
C684       C2089   1.510       .  S
C685       C2017   1.468       .  S
O686        H722   0.990       .  S
O687        C689   1.274       .  A
O688        C689   1.284       .  A
C689       C2457   1.463       .  S
O690       Zr691   2.437       .  S
O690        H719   0.990       .  S
Zr691       O694   2.436       .  S
Zr691       O695   2.440       .  S
Zr691       O696   2.488       .  S
O692        C697   1.285       .  A
O693        H710   0.990       .  S
O693        H725   0.990       .  S
O694        H711   0.990       .  S
O695        H715   0.990       .  S
O695        H724   0.990       .  S
O696        C697   1.292       .  A
C697       C2489   1.515       .  S
O698        H717   0.991       .  S
O698        H721   0.990       .  S
O699        H713   0.990       .  S
O699        H720   0.990       .  S
O700        C704   1.282       .  A
O701        C704   1.310       .  A
O702        H712   0.990       .  S
O703        H716   0.990       .  S
C704       C2153   1.516       .  S
Zr727       O728   2.434   1_554  S
Zr727       O729   2.434       .  S
Zr727       O730   2.426   1_554  S
Zr727       O733   2.383       .  S
Zr727       O735   2.359       .  S
Zr727       O736   2.391       .  S
Zr727       O737   2.408       .  S
Zr727       O738   2.429       .  S
O728        H784   0.991       .  S
O728        H792   0.990       .  S
O729        C749   1.283       .  A
O730        C751   1.280       .  A
O731       Zr741   2.542       .  S
O731        C750   1.298       .  A
O732       Zr740   2.408       .  S
O732        C751   1.280   1_554  A
O733        C750   1.264       .  A
O734       Zr742   2.430       .  S
O734        C749   1.284       .  A
O735       Zr740   2.373       .  S
O735       Zr742   2.369       .  S
O736       Zr741   2.418       .  S
O736       Zr742   2.387       .  S
O736        H771   0.966       .  S
O737       Zr740   2.384       .  S
O737       Zr757   2.422       .  S
O737        H774   0.967       .  S
O738       Zr741   2.393       .  S
O738       Zr757   2.396       .  S
Zr739       O764   2.439       .  S
Zr739       O758   2.437       .  S
Zr739       O766   2.461       .  S
Zr739       O754   2.440       .  S
Zr739       O745   2.388       .  S
Zr739       O746   2.412       .  S
Zr739       O747   2.373       .  S
Zr739       O748   2.394       .  S
Zr740       O759   2.442       .  S
Zr740       O752   2.435       .  S
Zr740       O753   2.379       .  S
Zr740       O746   2.403       .  S
Zr740       O747   2.381       .  S
Zr741       O743   2.435       .  S
Zr741       O765   2.437       .  S
Zr741       O767   2.520       .  S
Zr741       O745   2.395       .  S
Zr741       O748   2.413       .  S
Zr742       O768   2.436       .  S
Zr742       O769   2.437       .  S
Zr742       O744   2.438       .  S
Zr742       O745   2.379       .  S
Zr742       O746   2.406       .  S
O743        H780   0.990       .  S
O744        H775   0.990       .  S
O744        H789   0.990       .  S
O746        H772   0.966       .  S
O747       Zr757   2.344       .  S
O748       Zr757   2.394       .  S
O748        H773   0.965       .  S
C749       C2281   1.488       .  S
C750       C2137   1.499   1_554  S
C751       C2385   1.478       .  S
O752        H788   0.990       .  S
O753        C755   1.275       .  A
O754        C755   1.285       .  A
C755       C1985   1.467       .  S
O756       Zr757   2.433       .  S
O756        H785   0.990       .  S
Zr757       O760   2.435       .  S
Zr757       O761   2.442       .  S
Zr757       O762   2.455       .  S
O758        C763   1.286       .  A
O759        H776   0.990       .  S
O759        H791   0.990       .  S
O760        H777   0.990       .  S
O761        H781   0.991       .  S
O761        H790   0.989       .  S
O762        C763   1.287       .  A
C763       C1977   1.495       .  S
O764        H783   0.990       .  S
O764        H787   0.991       .  S
O765        H779   0.990       .  S
O765        H786   0.990       .  S
O766        C770   1.291       .  A
O767        C770   1.303       .  A
O768        H778   0.990       .  S
O769        H782   0.990       .  S
C770       C2073   1.516       .  S
Zr793       O794   2.439   1_565  S
Zr793       O795   2.438       .  S
Zr793       O796   2.414       .  S
Zr793       O799   2.418       .  S
Zr793       O801   2.364       .  S
Zr793       O802   2.394       .  S
Zr793       O803   2.409   1_565  S
Zr793       O804   2.384   1_565  S
O794        H850   0.990   1_545  S
O794        H858   0.990       .  S
O795        C815   1.287       .  A
O796        C817   1.280       .  A
O797       Zr807   2.523       .  S
O797        C816   1.304       .  A
O798       Zr806   2.401   1_565  S
O798        C817   1.280       .  A
O799        C816   1.284       .  A
O800       Zr808   2.480       .  S
O800        C815   1.293       .  A
O801       Zr806   2.373   1_565  S
O801       Zr808   2.348       .  S
O802       Zr807   2.416       .  S
O802       Zr808   2.389       .  S
O802        H837   0.966       .  S
O803       Zr806   2.400       .  S
O803       Zr823   2.413       .  S
O803        H840   0.968       .  S
O804       Zr807   2.391   1_545  S
O804       Zr823   2.374       .  S
Zr805       O830   2.436   1_546  S
Zr805       O824   2.445       .  S
Zr805       O832   2.367       .  S
Zr805       O820   2.395   1_556  S
Zr805       O811   2.416   1_545  S
Zr805       O812   2.406   1_545  S
Zr805       O813   2.364       .  S
Zr805       O814   2.381       .  S
Zr806       O825   2.436       .  S
Zr806       O818   2.434   1_545  S
Zr806       O819   2.424       .  S
Zr806       O812   2.382   1_545  S
Zr806       O813   2.383       .  S
Zr807       O809   2.435   1_565  S
Zr807       O831   2.435       .  S
Zr807       O833   2.544       .  S
Zr807       O811   2.390       .  S
Zr807       O814   2.401   1_565  S
Zr808       O834   2.436       .  S
Zr808       O835   2.437       .  S
Zr808       O810   2.440       .  S
Zr808       O811   2.410       .  S
Zr808       O812   2.428       .  S
O809        H846   0.990       .  S
O810        H841   0.990       .  S
O810        H855   0.990       .  S
O812        H838   0.966       .  S
O813       Zr823   2.369       .  S
O814       Zr823   2.380       .  S
O814        H839   0.966       .  S
C815       C2649   1.511       .  S
C816       C1961   1.506   1_565  S
C817       C2625   1.467       .  S
O818        H854   0.990       .  S
O819        C821   1.284   1_556  A
O820        C821   1.277       .  A
C821       C2265   1.463       .  S
O822       Zr823   2.434       .  S
O822        H851   0.990       .  S
Zr823       O826   2.437       .  S
Zr823       O827   2.439       .  S
Zr823       O828   2.433       .  S
O824        C829   1.286       .  A
O825        H842   0.990       .  S
O825        H857   0.990       .  S
O826        H843   0.990       .  S
O827        H847   0.990       .  S
O827        H856   0.990       .  S
O828        C829   1.283       .  A
C829       C2169   1.490       .  S
O830        H849   0.990       .  S
O830        H853   0.990   1_565  S
O831        H845   0.990       .  S
O831        H852   0.990       .  S
O832        C836   1.264   1_545  A
O833        C836   1.301       .  A
O834        H844   0.990       .  S
O835        H848   0.990       .  S
C836       C1945   1.491   1_556  S
Zr859       O860   2.441       .  S
Zr859       O861   2.441       .  S
Zr859       O862   2.436       .  S
Zr859       O865   2.437       .  S
Zr859       O867   2.367       .  S
Zr859       O868   2.401       .  S
Zr859       O869   2.415   1_545  S
Zr859       O870   2.384       .  S
O860        H916   0.990       .  S
O860        H924   0.990       .  S
O861        C881   1.285       .  A
O862        C883   1.283       .  A
O863       Zr873   2.530       .  S
O863        C882   1.304       .  A
O864       Zr872   2.401   1_545  S
O864        C883   1.280       .  A
O865        C882   1.286       .  A
O866       Zr874   2.452       .  S
O866        C881   1.286       .  A
O867       Zr872   2.373   1_545  S
O867       Zr874   2.349       .  S
O868       Zr873   2.425       .  S
O868       Zr874   2.398       .  S
O868        H903   0.967       .  S
O869       Zr872   2.401       .  S
O869       Zr889   2.419       .  S
O869        H906   0.966       .  S
O870       Zr873   2.389       .  S
O870       Zr889   2.375   1_545  S
Zr871       O896   2.439   1_565  S
Zr871       O890   2.473       .  S
Zr871       O898   2.385   1_565  S
Zr871       O886   2.408       .  S
Zr871       O877   2.416   1_565  S
Zr871       O878   2.413   1_565  S
Zr871       O879   2.361       .  S
Zr871       O880   2.383       .  S
Zr872       O891   2.435       .  S
Zr872       O884   2.436   1_565  S
Zr872       O885   2.415       .  S
Zr872       O878   2.377   1_565  S
Zr872       O879   2.380       .  S
Zr873       O875   2.435       .  S
Zr873       O897   2.436       .  S
Zr873       O899   2.546       .  S
Zr873       O877   2.381       .  S
Zr873       O880   2.413   1_545  S
Zr874       O900   2.435       .  S
Zr874       O901   2.433       .  S
Zr874       O876   2.442       .  S
Zr874       O877   2.396       .  S
Zr874       O878   2.422       .  S
O875        H912   0.990       .  S
O876        H907   0.990       .  S
O876        H921   0.989       .  S
O878        H904   0.966       .  S
O879       Zr889   2.363       .  S
O880       Zr889   2.390       .  S
O880        H905   0.966       .  S
C881       C1865   1.492       .  S
C882       C1873   1.508       .  S
C883       C1929   1.476       .  S
O884        H920   0.990       .  S
O885        C887   1.283       .  A
O886        C887   1.279       .  A
C887       C1905   1.467       .  S
O888       Zr889   2.434       .  S
O888        H917   0.990       .  S
Zr889       O892   2.434       .  S
Zr889       O893   2.435       .  S
Zr889       O894   2.439       .  S
O890        C895   1.292       .  A
O891        H908   0.990       .  S
O891        H923   0.990       .  S
O892        H909   0.990       .  S
O893        H913   0.990       .  S
O893        H922   0.990       .  S
O894        C895   1.285       .  A
C895       C1841   1.502       .  S
O896        H915   0.990       .  S
O896        H919   0.990       .  S
O897        H911   0.990       .  S
O897        H918   0.990       .  S
O898        C902   1.269       .  A
O899        C902   1.301       .  A
O900        H910   0.991       .  S
O901        H914   0.990       .  S
C902       C1889   1.502       .  S
Zr925       O926   2.446       .  S
Zr925       O927   2.448       .  S
Zr925       O928   2.397       .  S
Zr925       O931   2.400   1_565  S
Zr925       O933   2.356       .  S
Zr925       O934   2.392       .  S
Zr925       O935   2.429       .  S
Zr925       O936   2.398       .  S
O926        H982   0.991       .  S
O926        H990   0.990       .  S
O927        C947   1.285       .  A
O928        C949   1.276       .  A
O929       Zr939   2.553       .  S
O929        C948   1.308       .  A
O930       Zr938   2.423       .  S
O930        C949   1.279       .  A
O931        C948   1.277       .  A
O932       Zr940   2.450       .  S
O932        C947   1.285       .  A
O933       Zr938   2.361       .  S
O933       Zr940   2.340       .  S
O934       Zr939   2.432   1_565  S
O934       Zr940   2.410       .  S
O934        H969   0.966   1_565  S
O935       Zr938   2.407       .  S
O935       Zr955   2.409       .  S
O935        H972   0.965       .  S
O936       Zr939   2.383   1_565  S
O936       Zr955   2.387       .  S
Zr937       O962   2.441       .  S
Zr937       O956   2.454       .  S
Zr937       O964   2.380   1_565  S
Zr937       O952   2.420       .  S
Zr937       O943   2.405       .  S
Zr937       O944   2.403       .  S
Zr937       O945   2.361       .  S
Zr937       O946   2.404   1_565  S
Zr938       O957   2.440       .  S
Zr938       O950   2.434       .  S
Zr938       O951   2.416       .  S
Zr938       O944   2.393       .  S
Zr938       O945   2.373       .  S
Zr939       O941   2.434       .  S
Zr939       O963   2.435       .  S
Zr939       O965   2.551       .  S
Zr939       O943   2.398   1_545  S
Zr939       O946   2.405       .  S
Zr940       O966   2.434       .  S
Zr940       O967   2.439       .  S
Zr940       O942   2.445       .  S
Zr940       O943   2.395       .  S
Zr940       O944   2.427       .  S
O941        H978   0.990       .  S
O942        H973   0.990       .  S
O942        H987   0.990       .  S
O944        H970   0.966       .  S
O945       Zr955   2.354       .  S
O946       Zr955   2.390   1_545  S
O946        H971   0.965       .  S
C947       C1817   1.490       .  S
C948       C1897   1.503       .  S
C949       C1825   1.445       .  S
O950        H986   0.990       .  S
O951        C953   1.283       .  A
O952        C953   1.281       .  A
C953       C2713   1.470       .  S
O954       Zr955   2.437       .  S
O954        H983   0.990       .  S
Zr955       O958   2.436       .  S
Zr955       O959   2.437   1_565  S
Zr955       O960   2.437       .  S
O956        C961   1.289       .  A
O957        H974   0.989       .  S
O957        H989   0.990       .  S
O958        H975   0.991       .  S
O959        H979   0.990       .  S
O959        H988   0.990       .  S
O960        C961   1.284       .  A
C961       C2585   1.486   1_565  S
O962        H981   0.990       .  S
O962        H985   0.990       .  S
O963        H977   0.990       .  S
O963        H984   0.990       .  S
O964        C968   1.263       .  A
O965        C968   1.300       .  A
O966        H976   0.991       .  S
O967        H980   0.989       .  S
C968       C1953   1.504       .  S
Zr991       O992   2.439       .  S
Zr991       O993   2.448       .  S
Zr991       O994   2.377       .  S
Zr991       O997   2.380       .  S
Zr991       O999   2.364       .  S
Zr991      O1000   2.379       .  S
Zr991      O1001   2.414       .  S
Zr991      O1002   2.413       .  S
O992       H1048   0.991       .  S
O992       H1056   0.990       .  S
O993       C1013   1.286       .  A
O994       C1015   1.271       .  A
O995      Zr1005   2.537   1_565  S
O995       C1014   1.297       .  A
O996      Zr1004   2.445       .  S
O996       C1015   1.287       .  A
O997       C1014   1.264   1_545  A
O998      Zr1006   2.443       .  S
O998       C1013   1.284       .  A
O999      Zr1004   2.391       .  S
O999      Zr1006   2.369       .  S
O1000     Zr1005   2.418       .  S
O1000     Zr1006   2.388       .  S
O1000      H1035   0.966       .  S
O1001     Zr1004   2.397       .  S
O1001     Zr1021   2.420       .  S
O1001      H1038   0.966       .  S
O1002     Zr1005   2.386       .  S
O1002     Zr1021   2.396       .  S
Zr1003     O1028   2.442       .  S
Zr1003     O1022   2.469       .  S
Zr1003     O1030   2.440       .  S
Zr1003     O1018   2.401       .  S
Zr1003     O1009   2.389       .  S
Zr1003     O1010   2.427       .  S
Zr1003     O1011   2.374       .  S
Zr1003     O1012   2.388       .  S
Zr1004     O1023   2.439       .  S
Zr1004     O1016   2.435       .  S
Zr1004     O1017   2.435       .  S
Zr1004     O1010   2.406       .  S
Zr1004     O1011   2.391       .  S
Zr1005     O1007   2.434   1_545  S
Zr1005     O1029   2.436   1_545  S
Zr1005     O1031   2.514   1_545  S
Zr1005     O1009   2.393       .  S
Zr1005     O1012   2.415       .  S
Zr1006     O1032   2.437       .  S
Zr1006     O1033   2.436       .  S
Zr1006     O1008   2.439       .  S
Zr1006     O1009   2.385       .  S
Zr1006     O1010   2.411       .  S
O1007      H1044   0.990       .  S
O1008      H1039   0.990       .  S
O1008      H1053   0.990       .  S
O1010      H1036   0.966       .  S
O1011     Zr1021   2.349       .  S
O1012     Zr1021   2.394       .  S
O1012      H1037   0.965       .  S
C1013      C1777   1.497       .  S
C1014      C1881   1.497       .  S
C1015      C1793   1.463       .  S
O1016      H1052   0.990       .  S
O1017      C1019   1.282       .  A
O1018      C1019   1.276       .  A
C1019      C2193   1.472       .  S
O1020     Zr1021   2.434       .  S
O1020      H1049   0.990       .  S
Zr1021     O1024   2.435       .  S
Zr1021     O1025   2.441       .  S
Zr1021     O1026   2.448       .  S
O1022      C1027   1.290       .  A
O1023      H1040   0.990       .  S
O1023      H1055   0.990       .  S
O1024      H1041   0.990       .  S
O1025      H1045   0.990       .  S
O1025      H1054   0.990       .  S
O1026      C1027   1.286       .  A
C1027      C2225   1.507       .  S
O1028      H1047   0.990       .  S
O1028      H1051   0.990       .  S
O1029      H1043   0.990       .  S
O1029      H1050   0.990       .  S
O1030      C1034   1.286       .  A
O1031      C1034   1.301   1_565  A
O1032      H1042   0.990       .  S
O1033      H1046   0.990       .  S
C1034      C1937   1.503   1_545  S
Zr1057     O1058   2.441   1_565  S
Zr1057     O1059   2.463       .  S
Zr1057     O1060   2.427       .  S
Zr1057     O1063   2.384   1_455  S
Zr1057     O1065   2.357       .  S
Zr1057     O1066   2.403       .  S
Zr1057     O1067   2.410   1_455  S
Zr1057     O1068   2.406   1_455  S
O1058      H1114   0.990       .  S
O1058      H1122   0.990   1_455  S
O1059      C1079   1.289       .  A
O1060      C1081   1.280       .  A
O1061     Zr1071   2.555       .  S
O1061      C1080   1.301       .  A
O1062     Zr1070   2.408       .  S
O1062      C1081   1.280       .  A
O1063      C1080   1.264       .  A
O1064     Zr1072   2.443       .  S
O1064      C1079   1.286       .  A
O1065     Zr1070   2.371       .  S
O1065     Zr1072   2.354       .  S
O1066     Zr1071   2.403   1_455  S
O1066     Zr1072   2.391       .  S
O1066      H1101   0.966       .  S
O1067     Zr1070   2.392   1_655  S
O1067     Zr1087   2.440       .  S
O1067      H1104   0.966       .  S
O1068     Zr1071   2.389       .  S
O1068     Zr1087   2.387       .  S
Zr1069     O1094   2.439   1_655  S
Zr1069     O1088   2.461       .  S
Zr1069     O1096   2.426       .  S
Zr1069     O1084   2.415       .  S
Zr1069     O1075   2.415   1_655  S
Zr1069     O1076   2.417   1_655  S
Zr1069     O1077   2.359       .  S
Zr1069     O1078   2.391       .  S
Zr1070     O1089   2.437   1_455  S
Zr1070     O1082   2.434       .  S
Zr1070     O1083   2.401   1_455  S
Zr1070     O1076   2.399       .  S
Zr1070     O1077   2.366   1_455  S
Zr1071     O1073   2.433       .  S
Zr1071     O1095   2.436   1_655  S
Zr1071     O1097   2.528   1_655  S
Zr1071     O1075   2.403   1_655  S
Zr1071     O1078   2.421       .  S
Zr1072     O1098   2.435       .  S
Zr1072     O1099   2.436       .  S
Zr1072     O1074   2.439       .  S
Zr1072     O1075   2.393       .  S
Zr1072     O1076   2.411       .  S
O1073      H1110   0.991       .  S
O1074      H1105   0.990       .  S
O1074      H1119   0.991       .  S
O1076      H1102   0.966       .  S
O1077     Zr1087   2.339       .  S
O1078     Zr1087   2.399       .  S
O1078      H1103   0.966       .  S
C1079      C1785   1.492       .  S
C1080      C1729   1.505   1_565  S
C1081      C1921   1.461       .  S
O1082      H1118   0.990       .  S
O1083      C1085   1.281       .  A
O1084      C1085   1.280       .  A
C1085      C1769   1.465       .  S
O1086     Zr1087   2.435       .  S
O1086      H1115   0.990       .  S
Zr1087     O1090   2.434       .  S
Zr1087     O1091   2.442       .  S
Zr1087     O1092   2.459       .  S
O1088      C1093   1.291       .  A
O1089      H1106   0.990       .  S
O1089      H1121   0.990       .  S
O1090      H1107   0.990       .  S
O1091      H1111   0.990       .  S
O1091      H1120   0.990       .  S
O1092      C1093   1.288       .  A
C1093      C1713   1.507       .  S
O1094      H1113   0.991   1_455  S
O1094      H1117   0.990       .  S
O1095      H1109   0.990   1_455  S
O1095      H1116   0.990       .  S
O1096      C1100   1.280       .  A
O1097      C1100   1.301   1_455  A
O1098      H1108   0.990       .  S
O1099      H1112   0.990       .  S
C1100      C1745   1.505   1_655  S
Zr1123     O1124   2.435   1_655  S
Zr1123     O1125   2.428       .  S
Zr1123     O1126   2.388       .  S
Zr1123     O1129   2.372   1_655  S
Zr1123     O1131   2.356       .  S
Zr1123     O1132   2.381       .  S
Zr1123     O1133   2.406   1_655  S
Zr1123     O1134   2.410   1_655  S
O1124      H1180   0.991   1_455  S
O1124      H1188   0.990       .  S
O1125      C1145   1.283       .  A
O1126      C1147   1.274       .  A
O1127     Zr1137   2.567       .  S
O1127      C1146   1.304       .  A
O1128     Zr1136   2.424   1_655  S
O1128      C1147   1.285       .  A
O1129      C1146   1.263       .  A
O1130     Zr1138   2.427       .  S
O1130      C1145   1.283       .  A
O1131     Zr1136   2.373   1_655  S
O1131     Zr1138   2.362       .  S
O1132     Zr1137   2.399   1_655  S
O1132     Zr1138   2.388       .  S
O1132      H1167   0.966       .  S
O1133     Zr1136   2.384       .  S
O1133     Zr1153   2.431       .  S
O1133      H1170   0.965       .  S
O1134     Zr1137   2.388       .  S
O1134     Zr1153   2.396       .  S
Zr1135     O1160   2.447       .  S
Zr1135     O1154   2.423       .  S
Zr1135     O1162   2.438       .  S
Zr1135     O1150   2.438       .  S
Zr1135     O1141   2.388       .  S
Zr1135     O1142   2.407   1_455  S
Zr1135     O1143   2.363       .  S
Zr1135     O1144   2.401       .  S
Zr1136     O1155   2.435       .  S
Zr1136     O1148   2.436   1_455  S
Zr1136     O1149   2.395       .  S
Zr1136     O1142   2.398   1_455  S
Zr1136     O1143   2.373       .  S
Zr1137     O1139   2.434       .  S
Zr1137     O1161   2.437   1_455  S
Zr1137     O1163   2.542       .  S
Zr1137     O1141   2.397       .  S
Zr1137     O1144   2.426       .  S
Zr1138     O1164   2.436       .  S
Zr1138     O1165   2.439       .  S
Zr1138     O1140   2.439       .  S
Zr1138     O1141   2.376   1_655  S
Zr1138     O1142   2.411       .  S
O1139      H1176   0.990       .  S
O1140      H1171   0.990       .  S
O1140      H1185   0.990       .  S
O1142      H1168   0.969       .  S
O1143     Zr1153   2.345       .  S
O1144     Zr1153   2.395       .  S
O1144      H1169   0.966       .  S
C1145      C2057   1.477       .  S
C1146      C1705   1.505       .  S
C1147      C1993   1.461       .  S
O1148      H1184   0.990       .  S
O1149      C1151   1.279       .  A
O1150      C1151   1.286       .  A
C1151      C2409   1.473       .  S
O1152     Zr1153   2.436       .  S
O1152      H1181   0.990       .  S
Zr1153     O1156   2.438       .  S
Zr1153     O1157   2.436       .  S
Zr1153     O1158   2.478       .  S
O1154      C1159   1.283       .  A
O1155      H1172   0.990       .  S
O1155      H1187   0.990       .  S
O1156      H1173   0.990       .  S
O1157      H1177   0.990       .  S
O1157      H1186   0.990       .  S
O1158      C1159   1.291       .  A
C1159      C2185   1.501       .  S
O1160      H1179   0.990       .  S
O1160      H1183   0.989       .  S
O1161      H1175   0.990   1_655  S
O1161      H1182   0.990   1_655  S
O1162      C1166   1.287       .  A
O1163      C1166   1.306       .  A
O1164      H1174   0.990       .  S
O1165      H1178   0.990       .  S
C1166      C1681   1.518       .  S
Zr1189     O1190   2.434       .  S
Zr1189     O1191   2.462       .  S
Zr1189     O1192   2.374       .  S
Zr1189     O1195   2.388   1_655  S
Zr1189     O1197   2.363       .  S
Zr1189     O1198   2.377       .  S
Zr1189     O1199   2.415       .  S
Zr1189     O1200   2.416       .  S
O1190      H1246   0.989       .  S
O1190      H1254   0.989       .  S
O1191      C1211   1.290       .  A
O1192      C1213   1.274       .  A
O1193     Zr1203   2.546       .  S
O1193      C1212   1.301       .  A
O1194     Zr1202   2.443       .  S
O1194      C1213   1.287       .  A
O1195      C1212   1.265       .  A
O1196     Zr1204   2.442       .  S
O1196      C1211   1.285       .  A
O1197     Zr1202   2.381       .  S
O1197     Zr1204   2.366       .  S
O1198     Zr1203   2.410   1_655  S
O1198     Zr1204   2.390       .  S
O1198      H1233   0.966   1_655  S
O1199     Zr1202   2.385       .  S
O1199     Zr1219   2.425       .  S
O1199      H1236   0.966       .  S
O1200     Zr1203   2.391   1_655  S
O1200     Zr1219   2.407       .  S
Zr1201     O1226   2.441       .  S
Zr1201     O1220   2.427       .  S
Zr1201     O1228   2.431       .  S
Zr1201     O1216   2.425       .  S
Zr1201     O1207   2.380       .  S
Zr1201     O1208   2.415       .  S
Zr1201     O1209   2.374       .  S
Zr1201     O1210   2.396       .  S
Zr1202     O1221   2.440       .  S
Zr1202     O1214   2.435       .  S
Zr1202     O1215   2.417       .  S
Zr1202     O1208   2.402       .  S
Zr1202     O1209   2.380       .  S
Zr1203     O1205   2.434       .  S
Zr1203     O1227   2.436       .  S
Zr1203     O1229   2.527       .  S
Zr1203     O1207   2.391   1_455  S
Zr1203     O1210   2.418   1_455  S
Zr1204     O1230   2.435   1_655  S
Zr1204     O1231   2.435       .  S
Zr1204     O1206   2.436       .  S
Zr1204     O1207   2.373       .  S
Zr1204     O1208   2.411       .  S
O1205      H1242   0.990       .  S
O1206      H1237   0.990       .  S
O1206      H1251   0.990       .  S
O1208      H1234   0.965       .  S
O1209     Zr1219   2.349       .  S
O1210     Zr1219   2.394       .  S
O1210      H1235   0.966       .  S
C1211      C1649   1.500       .  S
C1212      C1753   1.501       .  S
C1213      C1673   1.460       .  S
O1214      H1250   0.990       .  S
O1215      C1217   1.282       .  A
O1216      C1217   1.281       .  A
C1217      C2121   1.475       .  S
O1218     Zr1219   2.439       .  S
O1218      H1247   0.990       .  S
Zr1219     O1222   2.437       .  S
Zr1219     O1223   2.442       .  S
Zr1219     O1224   2.470       .  S
O1220      C1225   1.282       .  A
O1221      H1238   0.990       .  S
O1221      H1253   0.990       .  S
O1222      H1239   0.991       .  S
O1223      H1243   0.990       .  S
O1223      H1252   0.990       .  S
O1224      C1225   1.288       .  A
C1225      C1969   1.502       .  S
O1226      H1245   0.991       .  S
O1226      H1249   0.990       .  S
O1227      H1241   0.990       .  S
O1227      H1248   0.990       .  S
O1228      C1232   1.285   1_655  A
O1229      C1232   1.304       .  A
O1230      H1240   0.990       .  S
O1231      H1244   0.991       .  S
C1232      C1697   1.506       .  S
Zr1255     O1256   2.440       .  S
Zr1255     O1257   2.425       .  S
Zr1255     O1258   2.424       .  S
Zr1255     O1261   2.404       .  S
Zr1255     O1263   2.358       .  S
Zr1255     O1264   2.394       .  S
Zr1255     O1265   2.413       .  S
Zr1255     O1266   2.393       .  S
O1256      H1312   0.991       .  S
O1256      H1320   0.990       .  S
O1257      C1277   1.282       .  A
O1258      C1279   1.281       .  A
O1259     Zr1269   2.543   1_655  S
O1259      C1278   1.307   1_655  A
O1260     Zr1268   2.411       .  S
O1260      C1279   1.282       .  A
O1261      C1278   1.280       .  A
O1262     Zr1270   2.470       .  S
O1262      C1277   1.289       .  A
O1263     Zr1268   2.369       .  S
O1263     Zr1270   2.340       .  S
O1264     Zr1269   2.412       .  S
O1264     Zr1270   2.396       .  S
O1264      H1299   0.964       .  S
O1265     Zr1268   2.402       .  S
O1265     Zr1285   2.420       .  S
O1265      H1302   0.966       .  S
O1266     Zr1269   2.394       .  S
O1266     Zr1285   2.392       .  S
Zr1267     O1292   2.436       .  S
Zr1267     O1286   2.434       .  S
Zr1267     O1294   2.375       .  S
Zr1267     O1282   2.400       .  S
Zr1267     O1273   2.419       .  S
Zr1267     O1274   2.398       .  S
Zr1267     O1275   2.361       .  S
Zr1267     O1276   2.386       .  S
Zr1268     O1287   2.437       .  S
Zr1268     O1280   2.436       .  S
Zr1268     O1281   2.424       .  S
Zr1268     O1274   2.387       .  S
Zr1268     O1275   2.384       .  S
Zr1269     O1271   2.434   1_455  S
Zr1269     O1293   2.435   1_455  S
Zr1269     O1295   2.556   1_455  S
Zr1269     O1273   2.400       .  S
Zr1269     O1276   2.404       .  S
Zr1270     O1296   2.436       .  S
Zr1270     O1297   2.438       .  S
Zr1270     O1272   2.442       .  S
Zr1270     O1273   2.409       .  S
Zr1270     O1274   2.422       .  S
O1271      H1308   0.990       .  S
O1272      H1303   0.990       .  S
O1272      H1317   0.990       .  S
O1274      H1300   0.970       .  S
O1275     Zr1285   2.369       .  S
O1276     Zr1285   2.377       .  S
O1276      H1301   0.965       .  S
C1277      C1857   1.501       .  S
C1278      C1737   1.509   1_455  S
C1279      C1801   1.470       .  S
O1280      H1316   0.990       .  S
O1281      C1283   1.283       .  A
O1282      C1283   1.279       .  A
C1283      C2217   1.468       .  S
O1284     Zr1285   2.440       .  S
O1284      H1313   0.990       .  S
Zr1285     O1288   2.436       .  S
Zr1285     O1289   2.442       .  S
Zr1285     O1290   2.471       .  S
O1286      C1291   1.285       .  A
O1287      H1304   0.990       .  S
O1287      H1319   0.990       .  S
O1288      H1305   0.990       .  S
O1289      H1309   0.990   1_455  S
O1289      H1318   0.990       .  S
O1290      C1291   1.291       .  A
C1291      C2345   1.503       .  S
O1292      H1311   0.990       .  S
O1292      H1315   0.991       .  S
O1293      H1307   0.990       .  S
O1293      H1314   0.990       .  S
O1294      C1298   1.262   1_455  A
O1295      C1298   1.302       .  A
O1296      H1306   0.990       .  S
O1297      H1310   0.990       .  S
C1298      C1689   1.505       .  S
Zr1321     O1322   2.431       .  S
Zr1321     O1323   2.435       .  S
Zr1321     O1324   2.377       .  S
Zr1321     O1327   2.369       .  S
Zr1321     O1329   2.354       .  S
Zr1321     O1330   2.377       .  S
Zr1321     O1331   2.403       .  S
Zr1321     O1332   2.416       .  S
O1322      H1378   0.989       .  S
O1322      H1386   0.989       .  S
O1323      C1343   1.286       .  A
O1324      C1345   1.275       .  A
O1325     Zr1335   2.569       .  S
O1325      C1344   1.303       .  A
O1326     Zr1334   2.437       .  S
O1326      C1345   1.286       .  A
O1327      C1344   1.259       .  A
O1328     Zr1336   2.460       .  S
O1328      C1343   1.289       .  A
O1329     Zr1334   2.378       .  S
O1329     Zr1336   2.361       .  S
O1330     Zr1335   2.405       .  S
O1330     Zr1336   2.381       .  S
O1330      H1365   0.966       .  S
O1331     Zr1334   2.379       .  S
O1331     Zr1351   2.427       .  S
O1331      H1368   0.966       .  S
O1332     Zr1335   2.391       .  S
O1332     Zr1351   2.412       .  S
Zr1333     O1358   2.441       .  S
Zr1333     O1352   2.440       .  S
Zr1333     O1360   2.446       .  S
Zr1333     O1348   2.422       .  S
Zr1333     O1339   2.381       .  S
Zr1333     O1340   2.421       .  S
Zr1333     O1341   2.366       .  S
Zr1333     O1342   2.399       .  S
Zr1334     O1353   2.441       .  S
Zr1334     O1346   2.433       .  S
Zr1334     O1347   2.400       .  S
Zr1334     O1340   2.413       .  S
Zr1334     O1341   2.378       .  S
Zr1335     O1337   2.436       .  S
Zr1335     O1359   2.437       .  S
Zr1335     O1361   2.533       .  S
Zr1335     O1339   2.401       .  S
Zr1335     O1342   2.432       .  S
Zr1336     O1362   2.434       .  S
Zr1336     O1363   2.436       .  S
Zr1336     O1338   2.437       .  S
Zr1336     O1339   2.384       .  S
Zr1336     O1340   2.416       .  S
O1337      H1374   0.990       .  S
O1338      H1369   0.990       .  S
O1338      H1383   0.990       .  S
O1340      H1366   0.966       .  S
O1341     Zr1351   2.344       .  S
O1342     Zr1351   2.398       .  S
O1342      H1367   0.966       .  S
C1343      C2001   1.496       .  S
C1344      C1633   1.512       .  S
C1345      C2105   1.464       .  S
O1346      H1382   0.990       .  S
O1347      C1349   1.278       .  A
O1348      C1349   1.281       .  A
C1349      C1665   1.468       .  S
O1350     Zr1351   2.438       .  S
O1350      H1379   0.990       .  S
Zr1351     O1354   2.440       .  S
Zr1351     O1355   2.439       .  S
Zr1351     O1356   2.482       .  S
O1352      C1357   1.285       .  A
O1353      H1370   0.990       .  S
O1353      H1385   0.990       .  S
O1354      H1371   0.990       .  S
O1355      H1375   0.990       .  S
O1355      H1384   0.990       .  S
O1356      C1357   1.292       .  A
C1357      C1721   1.509       .  S
O1358      H1377   0.990       .  S
O1358      H1381   0.991       .  S
O1359      H1373   0.990       .  S
O1359      H1380   0.990       .  S
O1360      C1364   1.289       .  A
O1361      C1364   1.304       .  A
O1362      H1372   0.991       .  S
O1363      H1376   0.990       .  S
C1364      C1617   1.515       .  S
Zr1387     O1388   2.443       .  S
Zr1387     O1389   2.446       .  S
Zr1387     O1390   2.478       .  S
Zr1387     O1393   2.435       .  S
Zr1387     O1395   2.338       .  S
Zr1387     O1396   2.412       .  S
Zr1387     O1397   2.424       .  S
Zr1387     O1398   2.396       .  S
O1388      H1444   0.990       .  S
O1388      H1452   0.990       .  S
O1389      C1409   1.288       .  A
O1390      C1411   1.292       .  A
O1391     Zr1401   2.551       .  S
O1391      C1410   1.309       .  A
O1392     Zr1400   2.395       .  S
O1392      C1411   1.280       .  A
O1393      C1410   1.285       .  A
O1394     Zr1402   2.475       .  S
O1394      C1409   1.290       .  A
O1395     Zr1400   2.362       .  S
O1395     Zr1402   2.329       .  S
O1396     Zr1401   2.425       .  S
O1396     Zr1402   2.393       .  S
O1396      H1431   0.966       .  S
O1397     Zr1400   2.393       .  S
O1397     Zr1417   2.434       .  S
O1397      H1434   0.963       .  S
O1398     Zr1401   2.380       .  S
O1398     Zr1417   2.370       .  S
Zr1399     O1424   2.448       .  S
Zr1399     O1418   2.448       .  S
Zr1399     O1426   2.375       .  S
Zr1399     O1414   2.397       .  S
Zr1399     O1405   2.409       .  S
Zr1399     O1406   2.402       .  S
Zr1399     O1407   2.356       .  S
Zr1399     O1408   2.387       .  S
Zr1400     O1419   2.436       .  S
Zr1400     O1412   2.437       .  S
Zr1400     O1413   2.415       .  S
Zr1400     O1406   2.401       .  S
Zr1400     O1407   2.370       .  S
Zr1401     O1403   2.435       .  S
Zr1401     O1425   2.437       .  S
Zr1401     O1427   2.569       .  S
Zr1401     O1405   2.391       .  S
Zr1401     O1408   2.402       .  S
Zr1402     O1428   2.435       .  S
Zr1402     O1429   2.435       .  S
Zr1402     O1404   2.438       .  S
Zr1402     O1405   2.394       .  S
Zr1402     O1406   2.430       .  S
O1403      H1440   0.990       .  S
O1404      H1435   0.991       .  S
O1404      H1449   0.990       .  S
O1406      H1432   0.966       .  S
O1407     Zr1417   2.337       .  S
O1408     Zr1417   2.394       .  S
O1408      H1433   0.966       .  S
C1409      C2441   1.502       .  S
C1410      C1601   1.508       .  S
C1411      C2729   1.470       .  S
O1412      H1448   0.990       .  S
O1413      C1415   1.279       .  A
O1414      C1415   1.273       .  A
C1415      C1833   1.453       .  S
O1416     Zr1417   2.435       .  S
O1416      H1445   0.990       .  S
Zr1417     O1420   2.435       .  S
Zr1417     O1421   2.437       .  S
Zr1417     O1422   2.462       .  S
O1418      C1423   1.286       .  A
O1419      H1436   0.990       .  S
O1419      H1451   0.990       .  S
O1420      H1437   0.990       .  S
O1421      H1441   0.990       .  S
O1421      H1450   0.989       .  S
O1422      C1423   1.291       .  A
C1423      C1849   1.499       .  S
O1424      H1443   0.988       .  S
O1424      H1447   0.990       .  S
O1425      H1439   0.990       .  S
O1425      H1446   0.990       .  S
O1426      C1430   1.271       .  A
O1427      C1430   1.308       .  A
O1428      H1438   0.990       .  S
O1429      H1442   0.990       .  S
C1430      C1593   1.508       .  S
Zr1453     O1454   2.441       .  S
Zr1453     O1455   2.428       .  S
Zr1453     O1456   2.420       .  S
Zr1453     O1459   2.427       .  S
Zr1453     O1461   2.366       .  S
Zr1453     O1462   2.389       .  S
Zr1453     O1463   2.419       .  S
Zr1453     O1464   2.376       .  S
O1454      H1510   0.990       .  S
O1454      H1518   0.990       .  S
O1455      C1475   1.281       .  A
O1456      C1477   1.282       .  A
O1457     Zr1467   2.567       .  S
O1457      C1476   1.309       .  A
O1458     Zr1466   2.407       .  S
O1458      C1477   1.279       .  A
O1459      C1476   1.286       .  A
O1460     Zr1468   2.479       .  S
O1460      C1475   1.291       .  A
O1461     Zr1466   2.395       .  S
O1461     Zr1468   2.343       .  S
O1462     Zr1467   2.426       .  S
O1462     Zr1468   2.401       .  S
O1462      H1497   0.966       .  S
O1463     Zr1466   2.409       .  S
O1463     Zr1483   2.416       .  S
O1463      H1500   0.967       .  S
O1464     Zr1467   2.384       .  S
O1464     Zr1483   2.376       .  S
Zr1465     O1490   2.431       .  S
Zr1465     O1484   2.429       .  S
Zr1465     O1492   2.376       .  S
Zr1465     O1480   2.383       .  S
Zr1465     O1471   2.412       .  S
Zr1465     O1472   2.412       .  S
Zr1465     O1473   2.353       .  S
Zr1465     O1474   2.384       .  S
Zr1466     O1485   2.438       .  S
Zr1466     O1478   2.436       .  S
Zr1466     O1479   2.457       .  S
Zr1466     O1472   2.386       .  S
Zr1466     O1473   2.369       .  S
Zr1467     O1469   2.437       .  S
Zr1467     O1491   2.435       .  S
Zr1467     O1493   2.564       .  S
Zr1467     O1471   2.391       .  S
Zr1467     O1474   2.415       .  S
Zr1468     O1494   2.435       .  S
Zr1468     O1495   2.436       .  S
Zr1468     O1470   2.438       .  S
Zr1468     O1471   2.404       .  S
Zr1468     O1472   2.430       .  S
O1469      H1506   0.990       .  S
O1470      H1501   0.990       .  S
O1470      H1515   0.990       .  S
O1472      H1498   0.966       .  S
O1473     Zr1483   2.351       .  S
O1474     Zr1483   2.394       .  S
O1474      H1499   0.966       .  S
C1475      C2033   1.507       .  S
C1476      C1641   1.533       .  S
C1477      C2025   1.464       .  S
O1478      H1514   0.990       .  S
O1479      C1481   1.290       .  A
O1480      C1481   1.273       .  A
C1481      C2473   1.468       .  S
O1482     Zr1483   2.435       .  S
O1482      H1511   0.990       .  S
Zr1483     O1486   2.435       .  S
Zr1483     O1487   2.436       .  S
Zr1483     O1488   2.453       .  S
O1484      C1489   1.284       .  A
O1485      H1502   0.990       .  S
O1485      H1517   0.990       .  S
O1486      H1503   0.990       .  S
O1487      H1507   0.990       .  S
O1487      H1516   0.990       .  S
O1488      C1489   1.288       .  A
C1489      C2665   1.492       .  S
O1490      H1509   0.990       .  S
O1490      H1513   0.990       .  S
O1491      H1505   0.990       .  S
O1491      H1512   0.990       .  S
O1492      C1496   1.263       .  A
O1493      C1496   1.304       .  A
O1494      H1504   0.990       .  S
O1495      H1508   0.990       .  S
C1496      C1609   1.506       .  S
Zr1519     O1520   2.433   1_455  S
Zr1519     O1521   2.442       .  S
Zr1519     O1522   2.383       .  S
Zr1519     O1525   2.389       .  S
Zr1519     O1527   2.359       .  S
Zr1519     O1528   2.381       .  S
Zr1519     O1529   2.413       .  S
Zr1519     O1530   2.415       .  S
O1520      H1576   0.989       .  S
O1520      H1584   0.988       .  S
O1521      C1541   1.285       .  A
O1522      C1543   1.273       .  A
O1523     Zr1533   2.560       .  S
O1523      C1542   1.302       .  A
O1524     Zr1532   2.424       .  S
O1524      C1543   1.284       .  A
O1525      C1542   1.264       .  A
O1526     Zr1534   2.453       .  S
O1526      C1541   1.286       .  A
O1527     Zr1532   2.379       .  S
O1527     Zr1534   2.357       .  S
O1528     Zr1533   2.421       .  S
O1528     Zr1534   2.391       .  S
O1528      H1563   0.966       .  S
O1529     Zr1532   2.384       .  S
O1529     Zr1549   2.420       .  S
O1529      H1566   0.966       .  S
O1530     Zr1533   2.386       .  S
O1530     Zr1549   2.390       .  S
Zr1531     O1556   2.440       .  S
Zr1531     O1550   2.449       .  S
Zr1531     O1558   2.437       .  S
Zr1531     O1546   2.440       .  S
Zr1531     O1537   2.392       .  S
Zr1531     O1538   2.414       .  S
Zr1531     O1539   2.363       .  S
Zr1531     O1540   2.397       .  S
Zr1532     O1551   2.442       .  S
Zr1532     O1544   2.434       .  S
Zr1532     O1545   2.393       .  S
Zr1532     O1538   2.406       .  S
Zr1532     O1539   2.374       .  S
Zr1533     O1535   2.437       .  S
Zr1533     O1557   2.435       .  S
Zr1533     O1559   2.526       .  S
Zr1533     O1537   2.401       .  S
Zr1533     O1540   2.421       .  S
Zr1534     O1560   2.438       .  S
Zr1534     O1561   2.436       .  S
Zr1534     O1536   2.437       .  S
Zr1534     O1537   2.392       .  S
Zr1534     O1538   2.419       .  S
O1535      H1572   0.990       .  S
O1536      H1567   0.990       .  S
O1536      H1581   0.990       .  S
O1538      H1564   0.966       .  S
O1539     Zr1549   2.348       .  S
O1540     Zr1549   2.394       .  S
O1540      H1565   0.966       .  S
C1541      C1657   1.496       .  S
C1542      C1625   1.512       .  S
C1543      C1761   1.449   1_455  S
O1544      H1580   0.990       .  S
O1545      C1547   1.277       .  A
O1546      C1547   1.285       .  A
C1547      C1913   1.475       .  S
O1548     Zr1549   2.434       .  S
O1548      H1577   0.990       .  S
Zr1549     O1552   2.435       .  S
Zr1549     O1553   2.439       .  S
Zr1549     O1554   2.449       .  S
O1550      C1555   1.287       .  A
O1551      H1568   0.990       .  S
O1551      H1583   0.990       .  S
O1552      H1569   0.990       .  S
O1553      H1573   0.990       .  S
O1553      H1582   0.990       .  S
O1554      C1555   1.287       .  A
C1555      C1809   1.500       .  S
O1556      H1575   0.990       .  S
O1556      H1579   0.990       .  S
O1557      H1571   0.990       .  S
O1557      H1578   0.990       .  S
O1558      C1562   1.286       .  A
O1559      C1562   1.303       .  A
O1560      H1570   0.990       .  S
O1561      H1574   0.990       .  S
C1562      C1585   1.512       .  S
C1585      C1586   1.408       .  A
C1585      C1590   1.416       .  A
C1586      C1587   1.417       .  A
C1586      H1595   1.083       .  S
C1587      C1588   1.414       .  A
C1587      H1596   1.083       .  S
C1588      C1594   1.431       .  A
C1588      C1589   1.411       .  A
C1589      C1591   1.404       .  A
C1589      C1590   1.418       .  A
C1590      H1597   1.084       .  S
C1591      C1592   1.404       .  A
C1591      H1598   1.084       .  S
C1592      C1593   1.409       .  A
C1592      H1599   1.084       .  S
C1593      C1594   1.424       .  A
C1594      H1600   1.084       .  S
C1601      C1602   1.406       .  A
C1601      C1606   1.417       .  A
C1602      C1603   1.413       .  A
C1602      H1611   1.083       .  S
C1603      C1604   1.412       .  A
C1603      H1612   1.083       .  S
C1604      C1610   1.427       .  A
C1604      C1605   1.410       .  A
C1605      C1607   1.408       .  A
C1605      C1606   1.422       .  A
C1606      H1613   1.081       .  S
C1607      C1608   1.410       .  A
C1607      H1614   1.083       .  S
C1608      C1609   1.409       .  A
C1608      H1615   1.083       .  S
C1609      C1610   1.419       .  A
C1610      H1616   1.083       .  S
C1617      C1618   1.408       .  A
C1617      C1622   1.424       .  A
C1618      C1619   1.398       .  A
C1618      H1627   1.083       .  S
C1619      C1620   1.400       .  A
C1619      H1628   1.084       .  S
C1620      C1626   1.416       .  A
C1620      C1621   1.413       .  A
C1621      C1623   1.414       .  A
C1621      C1622   1.437       .  A
C1622      H1629   1.083       .  S
C1623      C1624   1.421       .  A
C1623      H1630   1.083       .  S
C1624      C1625   1.412   1_655  A
C1624      H1631   1.081   1_655  S
C1625      C1626   1.413   1_455  A
C1626      H1632   1.084       .  S
C1633      C1634   1.411       .  A
C1633      C1638   1.414       .  A
C1634      C1635   1.423       .  A
C1634      H1643   1.082       .  S
C1635      C1636   1.415       .  A
C1635      H1644   1.083       .  S
C1636      C1642   1.443       .  A
C1636      C1637   1.413       .  A
C1637      C1639   1.395       .  A
C1637      C1638   1.415       .  A
C1638      H1645   1.085       .  S
C1639      C1640   1.394       .  A
C1639      H1646   1.084       .  S
C1640      C1641   1.417       .  A
C1640      H1647   1.082       .  S
C1641      C1642   1.427       .  A
C1642      H1648   1.083       .  S
C1649      C1650   1.408   1_655  A
C1649      C1654   1.413       .  A
C1650      C1651   1.405       .  A
C1650      H1659   1.083       .  S
C1651      C1652   1.405       .  A
C1651      H1660   1.083       .  S
C1652      C1658   1.416       .  A
C1652      C1653   1.413       .  A
C1653      C1655   1.404   1_455  A
C1653      C1654   1.414   1_455  A
C1654      H1661   1.084       .  S
C1655      C1656   1.402   1_655  A
C1655      H1662   1.083       .  S
C1656      C1657   1.407       .  A
C1656      H1663   1.083       .  S
C1657      C1658   1.412       .  A
C1658      H1664   1.084       .  S
C1665      C1666   1.403       .  A
C1665      C1670   1.406       .  A
C1666      C1667   1.392       .  A
C1666      H1675   1.083       .  S
C1667      C1668   1.401       .  A
C1667      H1676   1.084       .  S
C1668      C1674   1.390       .  A
C1668      C1669   1.412       .  A
C1669      C1671   1.403       .  A
C1669      C1670   1.392       .  A
C1670      H1677   1.084       .  S
C1671      C1672   1.395       .  A
C1671      H1678   1.084       .  S
C1672      C1673   1.400       .  A
C1672      H1679   1.083       .  S
C1673      C1674   1.404       .  A
C1674      H1680   1.086       .  S
C1681      C1682   1.412   1_455  A
C1681      C1686   1.422       .  A
C1682      C1683   1.398       .  A
C1682      H1691   1.084       .  S
C1683      C1684   1.399       .  A
C1683      H1692   1.084       .  S
C1684      C1690   1.416       .  A
C1684      C1685   1.414       .  A
C1685      C1687   1.412   1_655  A
C1685      C1686   1.436   1_655  A
C1686      H1693   1.083       .  S
C1687      C1688   1.418   1_455  A
C1687      H1694   1.083       .  S
C1688      C1689   1.410       .  A
C1688      H1695   1.083   1_655  S
C1689      C1690   1.413       .  A
C1690      H1696   1.085       .  S
C1697      C1698   1.406       .  A
C1697      C1702   1.416       .  A
C1698      C1699   1.414       .  A
C1698      H1707   1.083       .  S
C1699      C1700   1.413       .  A
C1699      H1708   1.083       .  S
C1700      C1706   1.427       .  A
C1700      C1701   1.410       .  A
C1701      C1703   1.405       .  A
C1701      C1702   1.417       .  A
C1702      H1709   1.084       .  S
C1703      C1704   1.407       .  A
C1703      H1710   1.084   1_455  S
C1704      C1705   1.409       .  A
C1704      H1711   1.083       .  S
C1705      C1706   1.421       .  A
C1706      H1712   1.082       .  S
C1713      C1714   1.409       .  A
C1713      C1718   1.418       .  A
C1714      C1715   1.402       .  A
C1714      H1723   1.083       .  S
C1715      C1716   1.404       .  A
C1715      H1724   1.082       .  S
C1716      C1722   1.415       .  A
C1716      C1717   1.411       .  A
C1717      C1719   1.409       .  A
C1717      C1718   1.421       .  A
C1718      H1725   1.083       .  S
C1719      C1720   1.411       .  A
C1719      H1726   1.083       .  S
C1720      C1721   1.408       .  A
C1720      H1727   1.083       .  S
C1721      C1722   1.415       .  A
C1722      H1728   1.083       .  S
C1729      C1730   1.403   1_655  A
C1729      C1734   1.426       .  A
C1730      C1731   1.408       .  A
C1730      H1739   1.083       .  S
C1731      C1732   1.411   1_455  A
C1731      H1740   1.083       .  S
C1732      C1738   1.415   1_655  A
C1732      C1733   1.407       .  A
C1733      C1735   1.414       .  A
C1733      C1734   1.419       .  A
C1734      H1741   1.084       .  S
C1735      C1736   1.414       .  A
C1735      H1742   1.083       .  S
C1736      C1737   1.406       .  A
C1736      H1743   1.083       .  S
C1737      C1738   1.420   1_655  A
C1738      H1744   1.084       .  S
C1745      C1746   1.406       .  A
C1745      C1750   1.419       .  A
C1746      C1747   1.402       .  A
C1746      H1755   1.082       .  S
C1747      C1748   1.402       .  A
C1747      H1756   1.083       .  S
C1748      C1754   1.418       .  A
C1748      C1749   1.413       .  A
C1749      C1751   1.409       .  A
C1749      C1750   1.429       .  A
C1750      H1757   1.083   1_455  S
C1751      C1752   1.413       .  A
C1751      H1758   1.083   1_455  S
C1752      C1753   1.408       .  A
C1752      H1759   1.083   1_455  S
C1753      C1754   1.414       .  A
C1754      H1760   1.084       .  S
C1761      C1762   1.398       .  A
C1761      C1766   1.403       .  A
C1762      C1763   1.390       .  A
C1762      H1771   1.084       .  S
C1763      C1764   1.401       .  A
C1763      H1772   1.084       .  S
C1764      C1770   1.387       .  A
C1764      C1765   1.413       .  A
C1765      C1767   1.404       .  A
C1765      C1766   1.394       .  A
C1766      H1773   1.086       .  S
C1767      C1768   1.396       .  A
C1767      H1774   1.084       .  S
C1768      C1769   1.403       .  A
C1768      H1775   1.083       .  S
C1769      C1770   1.403       .  A
C1770      H1776   1.085       .  S
C1777      C1778   1.408       .  A
C1777      C1782   1.413       .  A
C1778      C1779   1.401   1_545  A
C1778      H1787   1.083       .  S
C1779      C1780   1.403       .  A
C1779      H1788   1.084       .  S
C1780      C1786   1.410       .  A
C1780      C1781   1.413   1_565  A
C1781      C1783   1.406       .  A
C1781      C1782   1.414       .  A
C1782      H1789   1.084       .  S
C1783      C1784   1.405       .  A
C1783      H1790   1.083       .  S
C1784      C1785   1.407   1_545  A
C1784      H1791   1.083       .  S
C1785      C1786   1.410       .  A
C1786      H1792   1.084       .  S
C1793      C1794   1.400       .  A
C1793      C1798   1.407       .  A
C1794      C1795   1.393       .  A
C1794      H1803   1.083       .  S
C1795      C1796   1.403       .  A
C1795      H1804   1.084       .  S
C1796      C1802   1.392       .  A
C1796      C1797   1.413       .  A
C1797      C1799   1.403       .  A
C1797      C1798   1.393       .  A
C1798      H1805   1.085       .  S
C1799      C1800   1.394       .  A
C1799      H1806   1.084       .  S
C1800      C1801   1.404       .  A
C1800      H1807   1.083       .  S
C1801      C1802   1.405       .  A
C1802      H1808   1.084       .  S
C1809      C1810   1.409       .  A
C1809      C1814   1.411       .  A
C1810      C1811   1.405       .  A
C1810      H1819   1.083       .  S
C1811      C1812   1.404       .  A
C1811      H1820   1.083       .  S
C1812      C1818   1.415       .  A
C1812      C1813   1.413       .  A
C1813      C1815   1.401       .  A
C1813      C1814   1.411       .  A
C1814      H1821   1.083       .  S
C1815      C1816   1.399       .  A
C1815      H1822   1.082       .  S
C1816      C1817   1.407       .  A
C1816      H1823   1.083       .  S
C1817      C1818   1.410       .  A
C1818      H1824   1.084       .  S
C1825      C1826   1.401       .  A
C1825      C1830   1.396       .  A
C1826      C1827   1.390       .  A
C1826      H1835   1.083       .  S
C1827      C1828   1.400       .  A
C1827      H1836   1.084       .  S
C1828      C1834   1.388       .  A
C1828      C1829   1.414       .  A
C1829      C1831   1.400       .  A
C1829      C1830   1.389       .  A
C1830      H1837   1.086       .  S
C1831      C1832   1.390       .  A
C1831      H1838   1.084       .  S
C1832      C1833   1.402       .  A
C1832      H1839   1.083       .  S
C1833      C1834   1.400       .  A
C1834      H1840   1.085       .  S
C1841      C1842   1.408       .  A
C1841      C1846   1.414       .  A
C1842      C1843   1.407       .  A
C1842      H1851   1.083       .  S
C1843      C1844   1.407       .  A
C1843      H1852   1.084       .  S
C1844      C1850   1.418       .  A
C1844      C1845   1.414       .  A
C1845      C1847   1.405       .  A
C1845      C1846   1.415       .  A
C1846      H1853   1.084       .  S
C1847      C1848   1.403       .  A
C1847      H1854   1.083       .  S
C1848      C1849   1.406       .  A
C1848      H1855   1.083       .  S
C1849      C1850   1.415       .  A
C1850      H1856   1.084       .  S
C1857      C1858   1.411       .  A
C1857      C1862   1.413       .  A
C1858      C1859   1.400       .  A
C1858      H1867   1.083       .  S
C1859      C1860   1.402       .  A
C1859      H1868   1.084       .  S
C1860      C1866   1.412       .  A
C1860      C1861   1.414       .  A
C1861      C1863   1.406       .  A
C1861      C1862   1.417       .  A
C1862      H1869   1.084       .  S
C1863      C1864   1.405       .  A
C1863      H1870   1.083       .  S
C1864      C1865   1.406       .  A
C1864      H1871   1.083       .  S
C1865      C1866   1.410       .  A
C1866      H1872   1.084       .  S
C1873      C1874   1.408       .  A
C1873      C1878   1.414   1_545  A
C1874      C1875   1.417       .  A
C1874      H1883   1.083       .  S
C1875      C1876   1.414       .  A
C1875      H1884   1.083       .  S
C1876      C1882   1.427       .  A
C1876      C1877   1.410   1_545  A
C1877      C1879   1.404       .  A
C1877      C1878   1.414       .  A
C1878      H1885   1.084       .  S
C1879      C1880   1.402       .  A
C1879      H1886   1.083       .  S
C1880      C1881   1.405       .  A
C1880      H1887   1.084       .  S
C1881      C1882   1.422   1_565  A
C1882      H1888   1.083       .  S
C1889      C1890   1.407       .  A
C1889      C1894   1.420       .  A
C1890      C1891   1.404       .  A
C1890      H1899   1.083       .  S
C1891      C1892   1.405       .  A
C1891      H1900   1.083       .  S
C1892      C1898   1.417       .  A
C1892      C1893   1.411       .  A
C1893      C1895   1.412       .  A
C1893      C1894   1.426       .  A
C1894      H1901   1.082       .  S
C1895      C1896   1.415       .  A
C1895      H1902   1.083       .  S
C1896      C1897   1.408       .  A
C1896      H1903   1.083       .  S
C1897      C1898   1.416       .  A
C1898      H1904   1.085       .  S
C1905      C1906   1.405       .  A
C1905      C1910   1.400       .  A
C1906      C1907   1.395       .  A
C1906      H1915   1.083       .  S
C1907      C1908   1.402       .  A
C1907      H1916   1.082       .  S
C1908      C1914   1.403       .  A
C1908      C1909   1.415       .  A
C1909      C1911   1.395       .  A
C1909      C1910   1.394       .  A
C1910      H1917   1.085       .  S
C1911      C1912   1.387       .  A
C1911      H1918   1.084       .  S
C1912      C1913   1.409       .  A
C1912      H1919   1.083       .  S
C1913      C1914   1.405       .  A
C1914      H1920   1.084       .  S
C1921      C1922   1.401       .  A
C1921      C1926   1.405   1_565  A
C1922      C1923   1.395   1_565  A
C1922      H1931   1.083       .  S
C1923      C1924   1.403       .  A
C1923      H1932   1.084       .  S
C1924      C1930   1.394       .  A
C1924      C1925   1.412       .  A
C1925      C1927   1.405       .  A
C1925      C1926   1.399       .  A
C1926      H1933   1.085       .  S
C1927      C1928   1.398       .  A
C1927      H1934   1.084       .  S
C1928      C1929   1.405       .  A
C1928      H1935   1.083       .  S
C1929      C1930   1.407       .  A
C1930      H1936   1.084       .  S
C1937      C1938   1.405       .  A
C1937      C1942   1.417   1_565  A
C1938      C1939   1.409       .  A
C1938      H1947   1.083       .  S
C1939      C1940   1.410       .  A
C1939      H1948   1.083       .  S
C1940      C1946   1.419       .  A
C1940      C1941   1.411       .  A
C1941      C1943   1.407   1_565  A
C1941      C1942   1.417   1_565  A
C1942      H1949   1.084       .  S
C1943      C1944   1.407       .  A
C1943      H1950   1.083       .  S
C1944      C1945   1.408   1_545  A
C1944      H1951   1.083       .  S
C1945      C1946   1.416       .  A
C1946      H1952   1.084       .  S
C1953      C1954   1.405       .  A
C1953      C1958   1.422       .  A
C1954      C1955   1.411       .  A
C1954      H1963   1.083       .  S
C1955      C1956   1.411       .  A
C1955      H1964   1.083       .  S
C1956      C1962   1.416       .  A
C1956      C1957   1.408       .  A
C1957      C1959   1.412       .  A
C1957      C1958   1.417       .  A
C1958      H1965   1.084       .  S
C1959      C1960   1.410       .  A
C1959      H1966   1.083   1_545  S
C1960      C1961   1.404       .  A
C1960      H1967   1.083   1_545  S
C1961      C1962   1.421       .  A
C1962      H1968   1.084       .  S
C1969      C1970   1.410       .  A
C1969      C1974   1.414       .  A
C1970      C1971   1.399       .  A
C1970      H1979   1.082       .  S
C1971      C1972   1.399       .  A
C1971      H1980   1.080       .  S
C1972      C1978   1.412       .  A
C1972      C1973   1.413       .  A
C1973      C1975   1.406       .  A
C1973      C1974   1.418       .  A
C1974      H1981   1.084       .  S
C1975      C1976   1.406       .  A
C1975      H1982   1.083       .  S
C1976      C1977   1.407       .  A
C1976      H1983   1.083       .  S
C1977      C1978   1.409       .  A
C1978      H1984   1.084       .  S
C1985      C1986   1.409       .  A
C1985      C1990   1.400       .  A
C1986      C1987   1.388       .  A
C1986      H1995   1.083       .  S
C1987      C1988   1.395       .  A
C1987      H1996   1.084       .  S
C1988      C1994   1.393       .  A
C1988      C1989   1.416       .  A
C1989      C1991   1.398       .  A
C1989      C1990   1.396       .  A
C1990      H1997   1.084       .  S
C1991      C1992   1.390       .  A
C1991      H1998   1.083       .  S
C1992      C1993   1.406       .  A
C1992      H1999   1.084       .  S
C1993      C1994   1.397       .  A
C1994      H2000   1.085       .  S
C2001      C2002   1.408       .  A
C2001      C2006   1.412       .  A
C2002      C2003   1.400       .  A
C2002      H2011   1.083       .  S
C2003      C2004   1.402       .  A
C2003      H2012   1.084       .  S
C2004      C2010   1.411       .  A
C2004      C2005   1.414       .  A
C2005      C2007   1.406       .  A
C2005      C2006   1.416       .  A
C2006      H2013   1.084       .  S
C2007      C2008   1.405       .  A
C2007      H2014   1.083       .  S
C2008      C2009   1.406       .  A
C2008      H2015   1.083       .  S
C2009      C2010   1.410       .  A
C2010      H2016   1.084       .  S
C2017      C2018   1.406       .  A
C2017      C2022   1.402       .  A
C2018      C2019   1.395       .  A
C2018      H2027   1.083       .  S
C2019      C2020   1.401       .  A
C2019      H2028   1.083       .  S
C2020      C2026   1.396       .  A
C2020      C2021   1.413       .  A
C2021      C2023   1.399       .  A
C2021      C2022   1.392       .  A
C2022      H2029   1.085       .  S
C2023      C2024   1.390       .  A
C2023      H2030   1.084       .  S
C2024      C2025   1.403       .  A
C2024      H2031   1.083       .  S
C2025      C2026   1.404       .  A
C2026      H2032   1.084       .  S
C2033      C2034   1.408       .  A
C2033      C2038   1.414       .  A
C2034      C2035   1.411       .  A
C2034      H2043   1.083       .  S
C2035      C2036   1.409       .  A
C2035      H2044   1.083       .  S
C2036      C2042   1.422       .  A
C2036      C2037   1.413       .  A
C2037      C2039   1.402       .  A
C2037      C2038   1.411       .  A
C2038      H2045   1.084       .  S
C2039      C2040   1.398       .  A
C2039      H2046   1.083       .  S
C2040      C2041   1.408       .  A
C2040      H2047   1.083       .  S
C2041      C2042   1.416       .  A
C2042      H2048   1.083       .  S
C2049      C2050   1.407       .  A
C2049      C2054   1.403       .  A
C2050      C2051   1.400       .  A
C2050      H2059   1.083       .  S
C2051      C2052   1.403       .  A
C2051      H2060   1.084       .  S
C2052      C2058   1.406       .  A
C2052      C2053   1.414       .  A
C2053      C2055   1.400       .  A
C2053      C2054   1.401       .  A
C2054      H2061   1.084       .  S
C2055      C2056   1.395       .  A
C2055      H2062   1.084       .  S
C2056      C2057   1.405       .  A
C2056      H2063   1.083       .  S
C2057      C2058   1.407       .  A
C2058      H2064   1.084       .  S
C2065      C2066   1.409       .  A
C2065      C2070   1.424       .  A
C2066      C2067   1.407       .  A
C2066      H2075   1.083       .  S
C2067      C2068   1.405       .  A
C2067      H2076   1.083       .  S
C2068      C2074   1.422       .  A
C2068      C2069   1.411       .  A
C2069      C2071   1.414       .  A
C2069      C2070   1.431       .  A
C2070      H2077   1.084       .  S
C2071      C2072   1.417       .  A
C2071      H2078   1.083       .  S
C2072      C2073   1.409       .  A
C2072      H2079   1.083       .  S
C2073      C2074   1.417       .  A
C2074      H2080   1.084       .  S
C2081      C2082   1.408       .  A
C2081      C2086   1.420       .  A
C2082      C2083   1.416       .  A
C2082      H2091   1.083       .  S
C2083      C2084   1.413       .  A
C2083      H2092   1.083       .  S
C2084      C2090   1.432       .  A
C2084      C2085   1.410       .  A
C2085      C2087   1.407       .  A
C2085      C2086   1.425       .  A
C2086      H2093   1.084       .  S
C2087      C2088   1.409       .  A
C2087      H2094   1.083       .  S
C2088      C2089   1.409       .  A
C2088      H2095   1.083       .  S
C2089      C2090   1.425       .  A
C2090      H2096   1.083       .  S
C2097      C2098   1.403       .  A
C2097      C2102   1.409       .  A
C2098      C2099   1.397       .  A
C2098      H2107   1.083       .  S
C2099      C2100   1.405       .  A
C2099      H2108   1.084       .  S
C2100      C2106   1.394       .  A
C2100      C2101   1.410       .  A
C2101      C2103   1.403       .  A
C2101      C2102   1.391       .  A
C2102      H2109   1.084       .  S
C2103      C2104   1.393       .  A
C2103      H2110   1.084       .  S
C2104      C2105   1.401       .  A
C2104      H2111   1.083       .  S
C2105      C2106   1.408       .  A
C2106      H2112   1.085       .  S
C2113      C2114   1.402       .  A
C2113      C2118   1.406       .  A
C2114      C2115   1.393       .  A
C2114      H2123   1.083       .  S
C2115      C2116   1.401       .  A
C2115      H2124   1.084       .  S
C2116      C2122   1.394       .  A
C2116      C2117   1.413       .  A
C2117      C2119   1.403       .  A
C2117      C2118   1.398       .  A
C2118      H2125   1.085       .  S
C2119      C2120   1.396       .  A
C2119      H2126   1.084       .  S
C2120      C2121   1.406       .  A
C2120      H2127   1.083       .  S
C2121      C2122   1.405       .  A
C2122      H2128   1.084       .  S
C2129      C2130   1.406       .  A
C2129      C2134   1.414       .  A
C2130      C2131   1.415       .  A
C2130      H2139   1.083       .  S
C2131      C2132   1.413       .  A
C2131      H2140   1.083       .  S
C2132      C2138   1.427       .  A
C2132      C2133   1.411       .  A
C2133      C2135   1.405       .  A
C2133      C2134   1.415       .  A
C2134      H2141   1.083       .  S
C2135      C2136   1.403       .  A
C2135      H2142   1.084       .  S
C2136      C2137   1.407       .  A
C2136      H2143   1.084       .  S
C2137      C2138   1.421       .  A
C2138      H2144   1.083       .  S
C2145      C2146   1.408       .  A
C2145      C2150   1.422       .  A
C2146      C2147   1.409       .  A
C2146      H2155   1.083       .  S
C2147      C2148   1.408       .  A
C2147      H2156   1.083       .  S
C2148      C2154   1.423       .  A
C2148      C2149   1.410       .  A
C2149      C2151   1.413       .  A
C2149      C2150   1.429       .  A
C2150      H2157   1.082       .  S
C2151      C2152   1.416       .  A
C2151      H2158   1.083       .  S
C2152      C2153   1.408       .  A
C2152      H2159   1.083       .  S
C2153      C2154   1.421       .  A
C2154      H2160   1.084       .  S
C2161      C2162   1.406   1_554  A
C2161      C2166   1.411       .  A
C2162      C2163   1.397       .  A
C2162      H2171   1.083       .  S
C2163      C2164   1.402       .  A
C2163      H2172   1.084       .  S
C2164      C2170   1.406       .  A
C2164      C2165   1.413   1_556  A
C2165      C2167   1.406       .  A
C2165      C2166   1.412       .  A
C2166      H2173   1.084       .  S
C2167      C2168   1.404       .  A
C2167      H2174   1.084       .  S
C2168      C2169   1.407   1_554  A
C2168      H2175   1.083       .  S
C2169      C2170   1.408       .  A
C2170      H2176   1.084       .  S
C2177      C2178   1.407       .  A
C2177      C2182   1.418       .  A
C2178      C2179   1.396       .  A
C2178      H2187   1.083       .  S
C2179      C2180   1.400       .  A
C2179      H2188   1.082       .  S
C2180      C2186   1.408       .  A
C2180      C2181   1.412       .  A
C2181      C2183   1.410       .  A
C2181      C2182   1.422       .  A
C2182      H2189   1.084       .  S
C2183      C2184   1.412       .  A
C2183      H2190   1.083       .  S
C2184      C2185   1.408       .  A
C2184      H2191   1.083       .  S
C2185      C2186   1.410       .  A
C2186      H2192   1.084       .  S
C2193      C2194   1.407       .  A
C2193      C2198   1.405       .  A
C2194      C2195   1.390       .  A
C2194      H2203   1.082       .  S
C2195      C2196   1.398       .  A
C2195      H2204   1.084       .  S
C2196      C2202   1.395       .  A
C2196      C2197   1.415       .  A
C2197      C2199   1.402       .  A
C2197      C2198   1.399       .  A
C2198      H2205   1.084       .  S
C2199      C2200   1.396       .  A
C2199      H2206   1.084       .  S
C2200      C2201   1.404       .  A
C2200      H2207   1.083       .  S
C2201      C2202   1.401       .  A
C2202      H2208   1.086       .  S
C2209      C2210   1.404       .  A
C2209      C2214   1.409       .  A
C2210      C2211   1.394       .  A
C2210      H2219   1.082       .  S
C2211      C2212   1.401       .  A
C2211      H2220   1.084       .  S
C2212      C2218   1.395       .  A
C2212      C2213   1.412       .  A
C2213      C2215   1.403       .  A
C2213      C2214   1.396       .  A
C2214      H2221   1.084       .  S
C2215      C2216   1.395       .  A
C2215      H2222   1.084       .  S
C2216      C2217   1.404       .  A
C2216      H2223   1.083       .  S
C2217      C2218   1.405       .  A
C2218      H2224   1.085       .  S
C2225      C2226   1.410       .  A
C2225      C2230   1.411       .  A
C2226      C2227   1.411       .  A
C2226      H2235   1.083       .  S
C2227      C2228   1.409       .  A
C2227      H2236   1.083       .  S
C2228      C2234   1.429       .  A
C2228      C2229   1.415       .  A
C2229      C2231   1.399       .  A
C2229      C2230   1.417       .  A
C2230      H2237   1.083       .  S
C2231      C2232   1.400       .  A
C2231      H2238   1.083       .  S
C2232      C2233   1.412       .  A
C2232      H2239   1.083       .  S
C2233      C2234   1.421       .  A
C2234      H2240   1.083       .  S
C2241      C2242   1.407       .  A
C2241      C2246   1.420   1_556  A
C2242      C2243   1.399       .  A
C2242      H2251   1.083       .  S
C2243      C2244   1.401       .  A
C2243      H2252   1.083       .  S
C2244      C2250   1.418       .  A
C2244      C2245   1.414       .  A
C2245      C2247   1.410   1_556  A
C2245      C2246   1.432   1_556  A
C2246      H2253   1.083       .  S
C2247      C2248   1.416       .  A
C2247      H2254   1.083       .  S
C2248      C2249   1.411   1_554  A
C2248      H2255   1.081       .  S
C2249      C2250   1.413       .  A
C2250      H2256   1.084       .  S
C2257      C2258   1.404       .  A
C2257      C2262   1.406       .  A
C2258      C2259   1.393       .  A
C2258      H2267   1.083       .  S
C2259      C2260   1.402       .  A
C2259      H2268   1.084       .  S
C2260      C2266   1.393       .  A
C2260      C2261   1.413       .  A
C2261      C2263   1.402       .  A
C2261      C2262   1.392       .  A
C2262      H2269   1.084       .  S
C2263      C2264   1.394       .  A
C2263      H2270   1.084       .  S
C2264      C2265   1.403       .  A
C2264      H2271   1.083       .  S
C2265      C2266   1.404       .  A
C2266      H2272   1.085       .  S
C2273      C2274   1.405   1_556  A
C2273      C2278   1.410       .  A
C2274      C2275   1.396       .  A
C2274      H2283   1.083       .  S
C2275      C2276   1.401       .  A
C2275      H2284   1.084       .  S
C2276      C2282   1.402       .  A
C2276      C2277   1.413   1_554  A
C2277      C2279   1.406       .  A
C2277      C2278   1.410       .  A
C2278      H2285   1.084       .  S
C2279      C2280   1.404       .  A
C2279      H2286   1.084       .  S
C2280      C2281   1.409   1_556  A
C2280      H2287   1.083       .  S
C2281      C2282   1.407       .  A
C2282      H2288   1.084       .  S
C2289      C2290   1.407   1_554  A
C2289      C2294   1.424       .  A
C2290      C2291   1.400       .  A
C2290      H2299   1.082       .  S
C2291      C2292   1.401   1_556  A
C2291      H2300   1.084       .  S
C2292      C2298   1.418       .  A
C2292      C2293   1.413       .  A
C2293      C2295   1.413       .  A
C2293      C2294   1.437       .  A
C2294      H2301   1.083       .  S
C2295      C2296   1.420       .  A
C2295      H2302   1.083       .  S
C2296      C2297   1.411       .  A
C2296      H2303   1.083       .  S
C2297      C2298   1.416       .  A
C2298      H2304   1.085   1_554  S
C2305      C2306   1.397       .  A
C2305      C2310   1.409       .  A
C2306      C2307   1.394       .  A
C2306      H2315   1.083       .  S
C2307      C2308   1.403       .  A
C2307      H2316   1.084       .  S
C2308      C2314   1.394       .  A
C2308      C2309   1.411       .  A
C2309      C2311   1.407       .  A
C2309      C2310   1.403       .  A
C2310      H2317   1.085       .  S
C2311      C2312   1.402       .  A
C2311      H2318   1.081       .  S
C2312      C2313   1.404       .  A
C2312      H2319   1.083       .  S
C2313      C2314   1.408       .  A
C2314      H2320   1.084       .  S
C2321      C2322   1.406       .  A
C2321      C2326   1.406       .  A
C2322      C2323   1.410       .  A
C2322      H2331   1.083       .  S
C2323      C2324   1.409       .  A
C2323      H2332   1.083       .  S
C2324      C2330   1.421       .  A
C2324      C2325   1.414       .  A
C2325      C2327   1.398       .  A
C2325      C2326   1.407       .  A
C2326      H2333   1.085       .  S
C2327      C2328   1.396       .  A
C2327      H2334   1.084       .  S
C2328      C2329   1.411       .  A
C2328      H2335   1.083       .  S
C2329      C2330   1.417       .  A
C2330      H2336   1.083       .  S
C2337      C2338   1.407   1_655  A
C2337      C2342   1.412       .  A
C2338      C2339   1.403       .  A
C2338      H2347   1.083       .  S
C2339      C2340   1.403       .  A
C2339      H2348   1.083       .  S
C2340      C2346   1.417       .  A
C2340      C2341   1.415       .  A
C2341      C2343   1.403       .  A
C2341      C2342   1.418   1_455  A
C2342      H2349   1.084       .  S
C2343      C2344   1.403       .  A
C2343      H2350   1.084   1_455  S
C2344      C2345   1.411       .  A
C2344      H2351   1.083       .  S
C2345      C2346   1.412       .  A
C2346      H2352   1.084       .  S
C2353      C2354   1.412       .  A
C2353      C2358   1.414       .  A
C2354      C2355   1.421       .  A
C2354      H2363   1.082   1_455  S
C2355      C2356   1.415       .  A
C2355      H2364   1.083       .  S
C2356      C2362   1.439       .  A
C2356      C2357   1.413       .  A
C2357      C2359   1.400   1_556  A
C2357      C2358   1.417       .  A
C2358      H2365   1.085   1_556  S
C2359      C2360   1.399       .  A
C2359      H2366   1.084       .  S
C2360      C2361   1.409   1_554  A
C2360      H2367   1.083       .  S
C2361      C2362   1.426       .  A
C2362      H2368   1.083       .  S
C2369      C2370   1.406   1_554  A
C2369      C2374   1.423       .  A
C2370      C2371   1.408       .  A
C2370      H2379   1.083       .  S
C2371      C2372   1.410   1_556  A
C2371      H2380   1.083       .  S
C2372      C2378   1.415       .  A
C2372      C2373   1.408       .  A
C2373      C2375   1.411       .  A
C2373      C2374   1.417       .  A
C2374      H2381   1.084       .  S
C2375      C2376   1.410       .  A
C2375      H2382   1.083       .  S
C2376      C2377   1.404       .  A
C2376      H2383   1.083       .  S
C2377      C2378   1.421       .  A
C2378      H2384   1.085       .  S
C2385      C2386   1.407       .  A
C2385      C2390   1.403       .  A
C2386      C2387   1.399       .  A
C2386      H2395   1.083       .  S
C2387      C2388   1.403       .  A
C2387      H2396   1.084       .  S
C2388      C2394   1.402       .  A
C2388      C2389   1.414       .  A
C2389      C2391   1.396       .  A
C2389      C2390   1.394       .  A
C2390      H2397   1.085       .  S
C2391      C2392   1.388       .  A
C2391      H2398   1.084       .  S
C2392      C2393   1.408       .  A
C2392      H2399   1.083   1_556  S
C2393      C2394   1.406       .  A
C2394      H2400   1.084       .  S
C2401      C2402   1.406       .  A
C2401      C2406   1.401       .  A
C2402      C2403   1.391       .  A
C2402      H2411   1.084       .  S
C2403      C2404   1.399       .  A
C2403      H2412   1.083       .  S
C2404      C2410   1.397       .  A
C2404      C2405   1.415       .  A
C2405      C2407   1.397       .  A
C2405      C2406   1.396       .  A
C2406      H2413   1.085       .  S
C2407      C2408   1.391       .  A
C2407      H2414   1.084       .  S
C2408      C2409   1.408       .  A
C2408      H2415   1.083       .  S
C2409      C2410   1.402       .  A
C2410      H2416   1.083       .  S
C2417      C2418   1.407       .  A
C2417      C2422   1.410       .  A
C2418      C2419   1.398       .  A
C2418      H2427   1.083       .  S
C2419      C2420   1.402       .  A
C2419      H2428   1.084       .  S
C2420      C2426   1.407       .  A
C2420      C2421   1.414       .  A
C2421      C2423   1.406       .  A
C2421      C2422   1.412       .  A
C2422      H2429   1.084       .  S
C2423      C2424   1.404       .  A
C2423      H2430   1.083       .  S
C2424      C2425   1.405       .  A
C2424      H2431   1.083       .  S
C2425      C2426   1.407       .  A
C2426      H2432   1.085       .  S
C2433      C2434   1.405       .  A
C2433      C2438   1.415       .  A
C2434      C2435   1.405       .  A
C2434      H2443   1.083       .  S
C2435      C2436   1.406       .  A
C2435      H2444   1.081       .  S
C2436      C2442   1.416       .  A
C2436      C2437   1.410       .  A
C2437      C2439   1.408       .  A
C2437      C2438   1.417       .  A
C2438      H2445   1.081       .  S
C2439      C2440   1.408       .  A
C2439      H2446   1.083       .  S
C2440      C2441   1.407       .  A
C2440      H2447   1.083       .  S
C2441      C2442   1.413       .  A
C2442      H2448   1.082       .  S
C2449      C2450   1.399       .  A
C2449      C2454   1.404       .  A
C2450      C2451   1.393       .  A
C2450      H2459   1.083       .  S
C2451      C2452   1.403       .  A
C2451      H2460   1.084       .  S
C2452      C2458   1.389       .  A
C2452      C2453   1.411       .  A
C2453      C2455   1.403       .  A
C2453      C2454   1.390       .  A
C2454      H2461   1.085       .  S
C2455      C2456   1.394       .  A
C2455      H2462   1.084       .  S
C2456      C2457   1.402       .  A
C2456      H2463   1.083       .  S
C2457      C2458   1.406       .  A
C2458      H2464   1.084       .  S
C2465      C2466   1.400       .  A
C2465      C2470   1.405       .  A
C2466      C2467   1.403       .  A
C2466      H2475   1.082       .  S
C2467      C2468   1.409       .  A
C2467      H2476   1.083       .  S
C2468      C2474   1.400       .  A
C2468      C2469   1.410       .  A
C2469      C2471   1.402       .  A
C2469      C2470   1.388       .  A
C2470      H2477   1.085       .  S
C2471      C2472   1.391       .  A
C2471      H2478   1.084       .  S
C2472      C2473   1.399       .  A
C2472      H2479   1.083       .  S
C2473      C2474   1.413       .  A
C2474      H2480   1.084       .  S
C2481      C2482   1.410       .  A
C2481      C2486   1.411       .  A
C2482      C2483   1.411       .  A
C2482      H2491   1.083       .  S
C2483      C2484   1.409       .  A
C2483      H2492   1.083       .  S
C2484      C2490   1.427       .  A
C2484      C2485   1.413       .  A
C2485      C2487   1.400       .  A
C2485      C2486   1.415       .  A
C2486      H2493   1.082       .  S
C2487      C2488   1.400       .  A
C2487      H2494   1.082       .  S
C2488      C2489   1.412       .  A
C2488      H2495   1.082       .  S
C2489      C2490   1.419       .  A
C2490      H2496   1.083       .  S
C2497      C2498   1.409       .  A
C2497      C2502   1.414       .  A
C2498      C2499   1.404       .  A
C2498      H2507   1.083       .  S
C2499      C2500   1.404       .  A
C2499      H2508   1.083       .  S
C2500      C2506   1.416       .  A
C2500      C2501   1.414       .  A
C2501      C2503   1.405       .  A
C2501      C2502   1.414       .  A
C2502      H2509   1.084       .  S
C2503      C2504   1.402       .  A
C2503      H2510   1.083       .  S
C2504      C2505   1.406       .  A
C2504      H2511   1.083       .  S
C2505      C2506   1.410       .  A
C2506      H2512   1.084       .  S
C2513      C2514   1.408       .  A
C2513      C2518   1.424       .  A
C2514      C2515   1.412       .  A
C2514      H2523   1.083       .  S
C2515      C2516   1.410       .  A
C2515      H2524   1.083       .  S
C2516      C2522   1.424       .  A
C2516      C2517   1.409       .  A
C2517      C2519   1.412       .  A
C2517      C2518   1.426       .  A
C2518      H2525   1.084       .  S
C2519      C2520   1.414       .  A
C2519      H2526   1.083       .  S
C2520      C2521   1.408       .  A
C2520      H2527   1.083       .  S
C2521      C2522   1.423       .  A
C2522      H2528   1.084       .  S
C2529      C2530   1.407       .  A
C2529      C2534   1.400       .  A
C2530      C2531   1.389       .  A
C2530      H2539   1.082       .  S
C2531      C2532   1.396       .  A
C2531      H2540   1.084       .  S
C2532      C2538   1.394       .  A
C2532      C2533   1.416       .  A
C2533      C2535   1.398       .  A
C2533      C2534   1.396       .  A
C2534      H2541   1.083       .  S
C2535      C2536   1.391       .  A
C2535      H2542   1.083       .  S
C2536      C2537   1.405       .  A
C2536      H2543   1.083       .  S
C2537      C2538   1.399       .  A
C2538      H2544   1.085       .  S
C2545      C2546   1.404       .  A
C2545      C2550   1.404       .  A
C2546      C2547   1.393       .  A
C2546      H2555   1.083       .  S
C2547      C2548   1.400       .  A
C2547      H2556   1.084       .  S
C2548      C2554   1.393       .  A
C2548      C2549   1.414       .  A
C2549      C2551   1.401       .  A
C2549      C2550   1.394       .  A
C2550      H2557   1.085       .  S
C2551      C2552   1.393       .  A
C2551      H2558   1.084       .  S
C2552      C2553   1.406       .  A
C2552      H2559   1.083       .  S
C2553      C2554   1.403       .  A
C2554      H2560   1.084       .  S
C2561      C2562   1.402       .  A
C2561      C2566   1.410       .  A
C2562      C2563   1.403       .  A
C2562      H2571   1.083       .  S
C2563      C2564   1.406       .  A
C2563      H2572   1.083       .  S
C2564      C2570   1.409       .  A
C2564      C2565   1.413       .  A
C2565      C2567   1.407       .  A
C2565      C2566   1.410       .  A
C2566      H2573   1.084       .  S
C2567      C2568   1.404       .  A
C2567      H2574   1.083       .  S
C2568      C2569   1.404       .  A
C2568      H2575   1.083       .  S
C2569      C2570   1.409       .  A
C2570      H2576   1.084       .  S
C2577      C2578   1.408       .  A
C2577      C2582   1.407       .  A
C2578      C2579   1.401   1_545  A
C2578      H2587   1.084       .  S
C2579      C2580   1.404   1_565  A
C2579      H2588   1.084       .  S
C2580      C2586   1.410   1_545  A
C2580      C2581   1.414       .  A
C2581      C2583   1.404       .  A
C2581      C2582   1.410       .  A
C2582      H2589   1.084       .  S
C2583      C2584   1.400       .  A
C2583      H2590   1.083       .  S
C2584      C2585   1.404       .  A
C2584      H2591   1.083       .  S
C2585      C2586   1.410   1_545  A
C2586      H2592   1.084       .  S
C2593      C2594   1.410       .  A
C2593      C2598   1.414       .  A
C2594      C2595   1.417       .  A
C2594      H2603   1.082       .  S
C2595      C2596   1.411       .  A
C2595      H2604   1.083       .  S
C2596      C2602   1.432       .  A
C2596      C2597   1.414       .  A
C2597      C2599   1.401       .  A
C2597      C2598   1.417       .  A
C2598      H2605   1.084       .  S
C2599      C2600   1.400       .  A
C2599      H2606   1.084       .  S
C2600      C2601   1.407       .  A
C2600      H2607   1.083       .  S
C2601      C2602   1.420       .  A
C2602      H2608   1.083       .  S
C2609      C2610   1.400       .  A
C2609      C2614   1.405       .  A
C2610      C2611   1.394       .  A
C2610      H2619   1.083       .  S
C2611      C2612   1.403       .  A
C2611      H2620   1.084       .  S
C2612      C2618   1.394       .  A
C2612      C2613   1.412       .  A
C2613      C2615   1.402       .  A
C2613      C2614   1.394       .  A
C2614      H2621   1.085       .  S
C2615      C2616   1.394       .  A
C2615      H2622   1.084       .  S
C2616      C2617   1.404       .  A
C2616      H2623   1.083       .  S
C2617      C2618   1.407       .  A
C2618      H2624   1.084       .  S
C2625      C2626   1.405       .  A
C2625      C2630   1.404       .  A
C2626      C2627   1.392       .  A
C2626      H2635   1.082       .  S
C2627      C2628   1.400       .  A
C2627      H2636   1.084       .  S
C2628      C2634   1.392       .  A
C2628      C2629   1.413       .  A
C2629      C2631   1.400       .  A
C2629      C2630   1.391       .  A
C2630      H2637   1.084       .  S
C2631      C2632   1.392   1_565  A
C2631      H2638   1.084       .  S
C2632      C2633   1.405   1_545  A
C2632      H2639   1.083       .  S
C2633      C2634   1.404       .  A
C2634      H2640   1.085       .  S
C2641      C2642   1.414       .  A
C2641      C2646   1.419       .  A
C2642      C2643   1.401       .  A
C2642      H2651   1.083       .  S
C2643      C2644   1.401       .  A
C2643      H2652   1.084       .  S
C2644      C2650   1.416       .  A
C2644      C2645   1.413       .  A
C2645      C2647   1.409       .  A
C2645      C2646   1.427       .  A
C2646      H2653   1.083       .  S
C2647      C2648   1.411       .  A
C2647      H2654   1.083       .  S
C2648      C2649   1.410       .  A
C2648      H2655   1.083       .  S
C2649      C2650   1.414       .  A
C2650      H2656   1.084       .  S
C2657      C2658   1.406       .  A
C2657      C2662   1.410       .  A
C2658      C2659   1.401       .  A
C2658      H2667   1.083       .  S
C2659      C2660   1.404       .  A
C2659      H2668   1.083       .  S
C2660      C2666   1.411       .  A
C2660      C2661   1.413       .  A
C2661      C2663   1.403       .  A
C2661      C2662   1.409       .  A
C2662      H2669   1.084       .  S
C2663      C2664   1.400       .  A
C2663      H2670   1.084       .  S
C2664      C2665   1.408       .  A
C2664      H2671   1.083       .  S
C2665      C2666   1.410       .  A
C2666      H2672   1.084       .  S
C2673      C2674   1.406       .  A
C2673      C2678   1.419       .  A
C2674      C2675   1.415       .  A
C2674      H2683   1.083       .  S
C2675      C2676   1.413       .  A
C2675      H2684   1.083       .  S
C2676      C2682   1.423       .  A
C2676      C2677   1.409       .  A
C2677      C2679   1.406       .  A
C2677      C2678   1.413       .  A
C2678      H2685   1.084       .  S
C2679      C2680   1.404       .  A
C2679      H2686   1.084       .  S
C2680      C2681   1.407       .  A
C2680      H2687   1.084       .  S
C2681      C2682   1.420       .  A
C2682      H2688   1.084       .  S
C2689      C2690   1.410       .  A
C2689      C2694   1.421       .  A
C2690      C2691   1.405       .  A
C2690      H2699   1.077       .  S
C2691      C2692   1.403       .  A
C2691      H2700   1.084       .  S
C2692      C2698   1.422       .  A
C2692      C2693   1.412       .  A
C2693      C2695   1.409       .  A
C2693      C2694   1.430       .  A
C2694      H2701   1.083       .  S
C2695      C2696   1.413       .  A
C2695      H2702   1.083       .  S
C2696      C2697   1.410       .  A
C2696      H2703   1.083       .  S
C2697      C2698   1.416       .  A
C2698      H2704   1.084       .  S
C2705      C2706   1.406       .  A
C2705      C2710   1.405       .  A
C2706      C2707   1.393       .  A
C2706      H2715   1.083       .  S
C2707      C2708   1.399       .  A
C2707      H2716   1.084       .  S
C2708      C2714   1.398       .  A
C2708      C2709   1.414       .  A
C2709      C2711   1.400       .  A
C2709      C2710   1.398       .  A
C2710      H2717   1.085       .  S
C2711      C2712   1.395       .  A
C2711      H2718   1.084       .  S
C2712      C2713   1.407       .  A
C2712      H2719   1.083       .  S
C2713      C2714   1.402       .  A
C2714      H2720   1.085       .  S
C2721      C2722   1.405       .  A
C2721      C2726   1.397       .  A
C2722      C2723   1.398       .  A
C2722      H2731   1.084       .  S
C2723      C2724   1.400       .  A
C2723      H2732   1.082       .  S
C2724      C2730   1.406       .  A
C2724      C2725   1.418       .  A
C2725      C2727   1.394       .  A
C2725      C2726   1.396       .  A
C2726      H2733   1.086       .  S
C2727      C2728   1.387       .  A
C2727      H2734   1.084       .  S
C2728      C2729   1.409       .  A
C2728      H2735   1.084       .  S
C2729      C2730   1.400       .  A
C2730      H2736   1.084       .  S
